

         NASA-GLENN CHEMICAL EQUILIBRIUM PROGRAM CEA2, FEBRUARY 5, 2004
                   BY  BONNIE MCBRIDE AND SANFORD GORDON
      REFS: NASA RP-1311, PART I, 1994 AND NASA RP-1311, PART II, 1996

 *******************************************************************************

  
 ### CEA analysis performed on Thu 07-May-2020 14:20:04
  
 # Problem Type: "Rocket" (Infinite Area Combustor)
  
 prob case=AESIR__________3250 ro equilibrium
  
 # Pressure (21 values):
 p,bar= 20, 22, 24, 26, 28, 30, 32, 34, 36, 38, 40, 42, 44, 46, 48, 50, 52, 54, 5
 6, 58, 60
 # Chamber/Exit Pressure Ratio (4 values):
 pi/p= 20, 25, 30, 35
  
 # Oxidizer/Fuel Wt. ratio (22 values):
 o/f= 6, 6.2, 6.4, 6.6, 6.8, 7, 7.2, 7.4, 7.6, 7.8, 8, 8.2, 8.4, 8.6, 8.8, 9, 9.2
 , 9.4, 9.6, 9.8, 9.99999999999999, 10.2
  
 # You selected the following fuels and oxidizers:
 reac
 fuel C                 wt%=  2.0000
 fuel paraffin          wt%= 98.0000
 oxid N2O               wt%=100.0000  t,k= 293.000
  
 # You selected these options for output:
 # short version of output
 output short
 # Proportions of any products will be expressed as Mass Fractions.
 output massf
 # Heat will be expressed as siunits
 output siunits
  
 # Input prepared by this script:prepareInputFile.cgi
  
 ### IMPORTANT:  The following line is the end of your CEA input file!
 end

              THEORETICAL ROCKET PERFORMANCE ASSUMING EQUILIBRIUM

           COMPOSITION DURING EXPANSION FROM INFINITE AREA COMBUSTOR

 Pin =   290.1 PSIA
 CASE = AESIR__________

             REACTANT                    WT FRACTION      ENERGY      TEMP
                                          (SEE NOTE)     KJ/KG-MOL      K  
 FUEL        C                            0.0200000         0.000      0.000
 FUEL        paraffin                     0.9800000  -1860600.000    298.150
 OXIDANT     N2O                          1.0000000     81849.014    293.000

 O/F=    6.00000  %FUEL= 14.285714  R,EQ.RATIO= 1.517056  PHI,EQ.RATIO= 1.517056

                 CHAMBER   THROAT     EXIT     EXIT     EXIT     EXIT
 Pinf/P            1.0000   1.7594   20.000   25.000   30.000   35.000
 P, BAR            20.000   11.368   1.0000  0.80000  0.66667  0.57143
 T, K             3213.40  2984.18  1952.75  1866.72  1798.78  1743.01
 RHO, KG/CU M    1.8966 0 1.1715 0 1.5962-1 1.3359-1 1.1553-1 1.0220-1
 H, KJ/KG         1333.97   762.13 -1169.27 -1305.96 -1413.15 -1500.71
 U, KJ/KG          279.45  -208.19 -1795.77 -1904.82 -1990.18 -2059.84
 G, KJ/KG        -31589.4 -29812.8 -21176.4 -20431.8 -19842.9 -19359.0
 S, KJ/(KG)(K)    10.2457  10.2457  10.2457  10.2457  10.2457  10.2457

 M, (1/n)          25.336   25.571   25.915   25.918   25.919   25.919
 (dLV/dLP)t      -1.01223 -1.00738 -1.00010 -1.00006 -1.00004 -1.00002
 (dLV/dLT)p        1.2423   1.1572   1.0029   1.0017   1.0011   1.0007
 Cp, KJ/(KG)(K)    3.2423   2.7390   1.6010   1.5850   1.5749   1.5681
 GAMMAs            1.1682   1.1787   1.2523   1.2548   1.2564   1.2576
 SON VEL,M/SEC     1109.9   1069.4    885.7    866.8    851.5    838.6
 MACH NUMBER        0.000    1.000    2.526    2.651    2.753    2.839

 PERFORMANCE PARAMETERS

 Ae/At                      1.0000   3.5081   4.0816   4.6265   5.1487
 CSTAR, M/SEC               1596.3   1596.3   1596.3   1596.3   1596.3
 CF                         0.6699   1.4017   1.4394   1.4684   1.4916
 Ivac, M/SEC                1976.8   2517.5   2558.4   2590.2   2615.9
 Isp, M/SEC                 1069.4   2237.5   2297.8   2344.0   2381.0

 MASS FRACTIONS

 *CO              0.22579  0.21976  0.20111  0.19887  0.19688  0.19509
 *CO2             0.10467  0.11417  0.14347  0.14699  0.15011  0.15293
 *H               0.00064  0.00044  0.00001  0.00001  0.00000  0.00000
 HO2              0.00001  0.00000  0.00000  0.00000  0.00000  0.00000
 *H2              0.00490  0.00485  0.00582  0.00598  0.00613  0.00626
 H2O              0.10098  0.10551  0.10399  0.10257  0.10131  0.10016
 *NO              0.00559  0.00292  0.00001  0.00000  0.00000  0.00000
 *N2              0.54293  0.54419  0.54555  0.54556  0.54556  0.54556
 *O               0.00143  0.00061  0.00000  0.00000  0.00000  0.00000
 *OH              0.01045  0.00638  0.00004  0.00002  0.00001  0.00001
 *O2              0.00257  0.00118  0.00000  0.00000  0.00000  0.00000

  * THERMODYNAMIC PROPERTIES FITTED TO 20000.K

 NOTE. WEIGHT FRACTION OF FUEL IN TOTAL FUELS AND OF OXIDANT IN TOTAL OXIDANTS

              THEORETICAL ROCKET PERFORMANCE ASSUMING EQUILIBRIUM

           COMPOSITION DURING EXPANSION FROM INFINITE AREA COMBUSTOR

 Pin =   319.1 PSIA
 CASE = AESIR__________

             REACTANT                    WT FRACTION      ENERGY      TEMP
                                          (SEE NOTE)     KJ/KG-MOL      K  
 FUEL        C                            0.0200000         0.000      0.000
 FUEL        paraffin                     0.9800000  -1860600.000    298.150
 OXIDANT     N2O                          1.0000000     81849.014    293.000

 O/F=    6.00000  %FUEL= 14.285714  R,EQ.RATIO= 1.517056  PHI,EQ.RATIO= 1.517056

                 CHAMBER   THROAT     EXIT     EXIT     EXIT     EXIT
 Pinf/P            1.0000   1.7602   20.000   25.000   30.000   35.000
 P, BAR            22.000   12.498   1.1000  0.88000  0.73333  0.62857
 T, K             3220.86  2988.92  1952.01  1865.97  1798.03  1742.26
 RHO, KG/CU M    2.0827 0 1.2866 0 1.7565-1 1.4701-1 1.2714-1 1.1247-1
 H, KJ/KG         1333.97   760.81 -1170.61 -1307.25 -1414.39 -1501.92
 U, KJ/KG          277.63  -210.63 -1796.87 -1905.86 -1991.18 -2060.81
 G, KJ/KG        -31565.2 -29769.2 -21109.2 -20367.0 -19780.1 -19298.1
 S, KJ/(KG)(K)    10.2144  10.2144  10.2144  10.2144  10.2144  10.2144

 M, (1/n)          25.351   25.582   25.916   25.918   25.919   25.919
 (dLV/dLP)t      -1.01191 -1.00713 -1.00009 -1.00005 -1.00003 -1.00002
 (dLV/dLT)p        1.2356   1.1517   1.0027   1.0016   1.0010   1.0007
 Cp, KJ/(KG)(K)    3.1957   2.6997   1.5995   1.5840   1.5743   1.5677
 GAMMAs            1.1693   1.1800   1.2525   1.2549   1.2565   1.2577
 SON VEL,M/SEC     1111.4   1070.7    885.6    866.7    851.3    838.4
 MACH NUMBER        0.000    1.000    2.527    2.652    2.754    2.841

 PERFORMANCE PARAMETERS

 Ae/At                      1.0000   3.5041   4.0770   4.6213   5.1429
 CSTAR, M/SEC               1597.1   1597.1   1597.1   1597.1   1597.1
 CF                         0.6704   1.4014   1.4391   1.4680   1.4912
 Ivac, M/SEC                1978.0   2517.9   2558.8   2590.5   2616.2
 Isp, M/SEC                 1070.7   2238.1   2298.4   2344.5   2381.6

 MASS FRACTIONS

 *CO              0.22563  0.21965  0.20109  0.19885  0.19686  0.19506
 *CO2             0.10493  0.11434  0.14350  0.14703  0.15015  0.15297
 *H               0.00063  0.00042  0.00001  0.00001  0.00000  0.00000
 HO2              0.00001  0.00000  0.00000  0.00000  0.00000  0.00000
 *H2              0.00489  0.00484  0.00582  0.00598  0.00613  0.00626
 H2O              0.10132  0.10576  0.10398  0.10256  0.10129  0.10014
 *NO              0.00552  0.00285  0.00001  0.00000  0.00000  0.00000
 *N2              0.54297  0.54422  0.54555  0.54556  0.54556  0.54556
 *O               0.00136  0.00057  0.00000  0.00000  0.00000  0.00000
 *OH              0.01025  0.00621  0.00004  0.00002  0.00001  0.00001
 *O2              0.00246  0.00111  0.00000  0.00000  0.00000  0.00000

  * THERMODYNAMIC PROPERTIES FITTED TO 20000.K

 NOTE. WEIGHT FRACTION OF FUEL IN TOTAL FUELS AND OF OXIDANT IN TOTAL OXIDANTS

              THEORETICAL ROCKET PERFORMANCE ASSUMING EQUILIBRIUM

           COMPOSITION DURING EXPANSION FROM INFINITE AREA COMBUSTOR

 Pin =   348.1 PSIA
 CASE = AESIR__________

             REACTANT                    WT FRACTION      ENERGY      TEMP
                                          (SEE NOTE)     KJ/KG-MOL      K  
 FUEL        C                            0.0200000         0.000      0.000
 FUEL        paraffin                     0.9800000  -1860600.000    298.150
 OXIDANT     N2O                          1.0000000     81849.014    293.000

 O/F=    6.00000  %FUEL= 14.285714  R,EQ.RATIO= 1.517056  PHI,EQ.RATIO= 1.517056

                 CHAMBER   THROAT     EXIT     EXIT     EXIT     EXIT
 Pinf/P            1.0000   1.7610   20.000   25.000   30.000   35.000
 P, BAR            24.000   13.629   1.2000  0.96000  0.80000  0.68571
 T, K             3227.60  2993.16  1951.35  1865.29  1797.36  1741.60
 RHO, KG/CU M    2.2685 0 1.4015 0 1.9168-1 1.6043-1 1.3875-1 1.2274-1
 H, KJ/KG         1333.97   759.61 -1171.81 -1308.40 -1415.50 -1503.00
 U, KJ/KG          275.99  -212.81 -1797.85 -1906.79 -1992.08 -2061.67
 G, KJ/KG        -31541.9 -29728.3 -21048.0 -20308.0 -19723.1 -19242.7
 S, KJ/(KG)(K)    10.1859  10.1859  10.1859  10.1859  10.1859  10.1859

 M, (1/n)          25.365   25.592   25.916   25.918   25.919   25.919
 (dLV/dLP)t      -1.01162 -1.00691 -1.00009 -1.00005 -1.00003 -1.00002
 (dLV/dLT)p        1.2296   1.1469   1.0026   1.0015   1.0010   1.0007
 Cp, KJ/(KG)(K)    3.1538   2.6646   1.5983   1.5833   1.5738   1.5673
 GAMMAs            1.1703   1.1813   1.2526   1.2550   1.2566   1.2577
 SON VEL,M/SEC     1112.7   1071.8    885.5    866.6    851.2    838.3
 MACH NUMBER        0.000    1.000    2.528    2.653    2.755    2.842

 PERFORMANCE PARAMETERS

 Ae/At                      1.0000   3.5006   4.0729   4.6166   5.1378
 CSTAR, M/SEC               1597.7   1597.7   1597.7   1597.7   1597.7
 CF                         0.6708   1.4011   1.4388   1.4677   1.4908
 Ivac, M/SEC                1979.1   2518.3   2559.2   2590.9   2616.5
 Isp, M/SEC                 1071.8   2238.7   2298.9   2345.0   2382.0

 MASS FRACTIONS

 *CO              0.22547  0.21955  0.20108  0.19883  0.19684  0.19504
 *CO2             0.10517  0.11450  0.14352  0.14705  0.15018  0.15300
 *H               0.00061  0.00041  0.00001  0.00001  0.00000  0.00000
 HCO              0.00001  0.00000  0.00000  0.00000  0.00000  0.00000
 HO2              0.00001  0.00000  0.00000  0.00000  0.00000  0.00000
 *H2              0.00489  0.00484  0.00582  0.00598  0.00613  0.00626
 H2O              0.10163  0.10599  0.10397  0.10255  0.10128  0.10013
 *NO              0.00545  0.00279  0.00000  0.00000  0.00000  0.00000
 *N2              0.54300  0.54425  0.54555  0.54556  0.54556  0.54556
 *O               0.00130  0.00054  0.00000  0.00000  0.00000  0.00000
 *OH              0.01007  0.00606  0.00004  0.00002  0.00001  0.00001
 *O2              0.00237  0.00105  0.00000  0.00000  0.00000  0.00000

  * THERMODYNAMIC PROPERTIES FITTED TO 20000.K

 NOTE. WEIGHT FRACTION OF FUEL IN TOTAL FUELS AND OF OXIDANT IN TOTAL OXIDANTS

              THEORETICAL ROCKET PERFORMANCE ASSUMING EQUILIBRIUM

           COMPOSITION DURING EXPANSION FROM INFINITE AREA COMBUSTOR

 Pin =   377.1 PSIA
 CASE = AESIR__________

             REACTANT                    WT FRACTION      ENERGY      TEMP
                                          (SEE NOTE)     KJ/KG-MOL      K  
 FUEL        C                            0.0200000         0.000      0.000
 FUEL        paraffin                     0.9800000  -1860600.000    298.150
 OXIDANT     N2O                          1.0000000     81849.014    293.000

 O/F=    6.00000  %FUEL= 14.285714  R,EQ.RATIO= 1.517056  PHI,EQ.RATIO= 1.517056

                 CHAMBER   THROAT     EXIT     EXIT     EXIT     EXIT
 Pinf/P            1.0000   1.7617   20.000   25.000   30.000   35.000
 P, BAR            26.000   14.758   1.3000   1.0400  0.86667  0.74286
 T, K             3233.73  2996.98  1950.76  1864.69  1796.75  1741.00
 RHO, KG/CU M    2.4540 0 1.5163 0 2.0772-1 1.7386-1 1.5036-1 1.3301-1
 H, KJ/KG         1333.97   758.52 -1172.89 -1309.44 -1416.50 -1503.96
 U, KJ/KG          274.49  -214.80 -1798.73 -1907.63 -1992.88 -2062.44
 G, KJ/KG        -31519.6 -29689.7 -20991.8 -20254.0 -19670.8 -19191.9
 S, KJ/(KG)(K)    10.1596  10.1596  10.1596  10.1596  10.1596  10.1596

 M, (1/n)          25.377   25.601   25.916   25.918   25.919   25.920
 (dLV/dLP)t      -1.01135 -1.00671 -1.00009 -1.00005 -1.00003 -1.00002
 (dLV/dLT)p        1.2241   1.1425   1.0025   1.0015   1.0009   1.0006
 Cp, KJ/(KG)(K)    3.1159   2.6332   1.5972   1.5826   1.5733   1.5669
 GAMMAs            1.1712   1.1824   1.2528   1.2551   1.2567   1.2578
 SON VEL,M/SEC     1114.0   1072.8    885.5    866.5    851.1    838.1
 MACH NUMBER        0.000    1.000    2.529    2.654    2.756    2.843

 PERFORMANCE PARAMETERS

 Ae/At                      1.0000   3.4974   4.0692   4.6125   5.1332
 CSTAR, M/SEC               1598.4   1598.4   1598.4   1598.4   1598.4
 CF                         0.6712   1.4009   1.4385   1.4674   1.4905
 Ivac, M/SEC                1980.1   2518.6   2559.5   2591.2   2616.8
 Isp, M/SEC                 1072.8   2239.1   2299.3   2345.4   2382.4

 MASS FRACTIONS

 *CO              0.22533  0.21946  0.20106  0.19881  0.19682  0.19502
 *CO2             0.10539  0.11464  0.14354  0.14708  0.15021  0.15303
 *H               0.00059  0.00040  0.00001  0.00001  0.00000  0.00000
 HCO              0.00001  0.00000  0.00000  0.00000  0.00000  0.00000
 HO2              0.00001  0.00000  0.00000  0.00000  0.00000  0.00000
 *H2              0.00488  0.00483  0.00582  0.00599  0.00613  0.00626
 H2O              0.10190  0.10620  0.10397  0.10254  0.10127  0.10012
 *NO              0.00539  0.00274  0.00000  0.00000  0.00000  0.00000
 *N2              0.54303  0.54427  0.54555  0.54556  0.54556  0.54556
 *O               0.00125  0.00052  0.00000  0.00000  0.00000  0.00000
 *OH              0.00990  0.00592  0.00004  0.00002  0.00001  0.00001
 *O2              0.00228  0.00100  0.00000  0.00000  0.00000  0.00000

  * THERMODYNAMIC PROPERTIES FITTED TO 20000.K

 NOTE. WEIGHT FRACTION OF FUEL IN TOTAL FUELS AND OF OXIDANT IN TOTAL OXIDANTS

              THEORETICAL ROCKET PERFORMANCE ASSUMING EQUILIBRIUM

           COMPOSITION DURING EXPANSION FROM INFINITE AREA COMBUSTOR

 Pin =   406.1 PSIA
 CASE = AESIR__________

             REACTANT                    WT FRACTION      ENERGY      TEMP
                                          (SEE NOTE)     KJ/KG-MOL      K  
 FUEL        C                            0.0200000         0.000      0.000
 FUEL        paraffin                     0.9800000  -1860600.000    298.150
 OXIDANT     N2O                          1.0000000     81849.014    293.000

 O/F=    6.00000  %FUEL= 14.285714  R,EQ.RATIO= 1.517056  PHI,EQ.RATIO= 1.517056

                 CHAMBER   THROAT     EXIT     EXIT     EXIT     EXIT
 Pinf/P            1.0000   1.7624   20.000   25.000   30.000   35.000
 P, BAR            28.000   15.888   1.4000   1.1200  0.93333  0.80000
 T, K             3239.35  3000.45  1950.22  1864.14  1796.20  1740.46
 RHO, KG/CU M    2.6394 0 1.6310 0 2.2376-1 1.8729-1 1.6198-1 1.4329-1
 H, KJ/KG         1333.97   757.52 -1173.86 -1310.37 -1417.40 -1504.84
 U, KJ/KG          273.13  -216.61 -1799.53 -1908.38 -1993.60 -2063.14
 G, KJ/KG        -31498.0 -29653.1 -20940.0 -20204.0 -19622.5 -19145.0
 S, KJ/(KG)(K)    10.1353  10.1353  10.1353  10.1353  10.1353  10.1353

 M, (1/n)          25.389   25.610   25.916   25.918   25.919   25.920
 (dLV/dLP)t      -1.01111 -1.00653 -1.00008 -1.00005 -1.00003 -1.00002
 (dLV/dLT)p        1.2191   1.1386   1.0024   1.0014   1.0009   1.0006
 Cp, KJ/(KG)(K)    3.0814   2.6047   1.5962   1.5820   1.5729   1.5666
 GAMMAs            1.1721   1.1835   1.2529   1.2552   1.2567   1.2578
 SON VEL,M/SEC     1115.1   1073.7    885.4    866.4    851.0    838.0
 MACH NUMBER        0.000    1.000    2.529    2.654    2.757    2.843

 PERFORMANCE PARAMETERS

 Ae/At                      1.0000   3.4945   4.0659   4.6087   5.1290
 CSTAR, M/SEC               1598.9   1598.9   1598.9   1598.9   1598.9
 CF                         0.6715   1.4007   1.4383   1.4671   1.4903
 Ivac, M/SEC                1981.0   2518.9   2559.8   2591.4   2617.1
 Isp, M/SEC                 1073.7   2239.6   2299.7   2345.8   2382.8

 MASS FRACTIONS

 *CO              0.22520  0.21937  0.20105  0.19880  0.19680  0.19500
 *CO2             0.10560  0.11477  0.14356  0.14710  0.15023  0.15306
 *H               0.00058  0.00039  0.00001  0.00001  0.00000  0.00000
 HCO              0.00001  0.00000  0.00000  0.00000  0.00000  0.00000
 HO2              0.00001  0.00000  0.00000  0.00000  0.00000  0.00000
 *H2              0.00488  0.00483  0.00582  0.00599  0.00613  0.00626
 H2O              0.10216  0.10639  0.10396  0.10253  0.10126  0.10011
 *NO              0.00533  0.00269  0.00000  0.00000  0.00000  0.00000
 *N2              0.54306  0.54430  0.54555  0.54556  0.54556  0.54556
 *O               0.00121  0.00049  0.00000  0.00000  0.00000  0.00000
 *OH              0.00975  0.00580  0.00004  0.00002  0.00001  0.00001
 *O2              0.00221  0.00096  0.00000  0.00000  0.00000  0.00000

  * THERMODYNAMIC PROPERTIES FITTED TO 20000.K

 NOTE. WEIGHT FRACTION OF FUEL IN TOTAL FUELS AND OF OXIDANT IN TOTAL OXIDANTS

              THEORETICAL ROCKET PERFORMANCE ASSUMING EQUILIBRIUM

           COMPOSITION DURING EXPANSION FROM INFINITE AREA COMBUSTOR

 Pin =   435.1 PSIA
 CASE = AESIR__________

             REACTANT                    WT FRACTION      ENERGY      TEMP
                                          (SEE NOTE)     KJ/KG-MOL      K  
 FUEL        C                            0.0200000         0.000      0.000
 FUEL        paraffin                     0.9800000  -1860600.000    298.150
 OXIDANT     N2O                          1.0000000     81849.014    293.000

 O/F=    6.00000  %FUEL= 14.285714  R,EQ.RATIO= 1.517056  PHI,EQ.RATIO= 1.517056

                 CHAMBER   THROAT     EXIT     EXIT     EXIT     EXIT
 Pinf/P            1.0000   1.7630   20.000   25.000   30.000   35.000
 P, BAR            30.000   17.016   1.5000   1.2000   1.0000  0.85714
 T, K             3244.53  3003.63  1949.72  1863.63  1795.70  1739.96
 RHO, KG/CU M    2.8246 0 1.7455 0 2.3981-1 2.0072-1 1.7360-1 1.5357-1
 H, KJ/KG         1333.97   756.60 -1174.75 -1311.22 -1418.22 -1505.63
 U, KJ/KG          271.87  -218.27 -1800.26 -1909.07 -1994.26 -2063.78
 G, KJ/KG        -31477.2 -29618.4 -20891.8 -20157.7 -19577.7 -19101.5
 S, KJ/(KG)(K)    10.1128  10.1128  10.1128  10.1128  10.1128  10.1128

 M, (1/n)          25.399   25.617   25.917   25.918   25.919   25.920
 (dLV/dLP)t      -1.01089 -1.00636 -1.00008 -1.00005 -1.00003 -1.00002
 (dLV/dLT)p        1.2145   1.1350   1.0023   1.0014   1.0009   1.0006
 Cp, KJ/(KG)(K)    3.0498   2.5787   1.5954   1.5814   1.5725   1.5664
 GAMMAs            1.1729   1.1845   1.2530   1.2553   1.2568   1.2579
 SON VEL,M/SEC     1116.1   1074.6    885.3    866.3    850.9    837.9
 MACH NUMBER        0.000    1.000    2.530    2.655    2.757    2.844

 PERFORMANCE PARAMETERS

 Ae/At                      1.0000   3.4919   4.0629   4.6053   5.1253
 CSTAR, M/SEC               1599.4   1599.4   1599.4   1599.4   1599.4
 CF                         0.6719   1.4005   1.4381   1.4669   1.4900
 Ivac, M/SEC                1981.8   2519.2   2560.0   2591.7   2617.3
 Isp, M/SEC                 1074.6   2240.0   2300.1   2346.1   2383.1

 MASS FRACTIONS

 *CO              0.22508  0.21930  0.20104  0.19878  0.19679  0.19499
 *CO2             0.10579  0.11488  0.14358  0.14712  0.15026  0.15309
 *H               0.00057  0.00038  0.00001  0.00001  0.00000  0.00000
 HCO              0.00001  0.00000  0.00000  0.00000  0.00000  0.00000
 HO2              0.00001  0.00000  0.00000  0.00000  0.00000  0.00000
 *H2              0.00487  0.00483  0.00582  0.00599  0.00613  0.00626
 H2O              0.10240  0.10657  0.10395  0.10252  0.10125  0.10010
 *NO              0.00527  0.00264  0.00000  0.00000  0.00000  0.00000
 *N2              0.54308  0.54432  0.54555  0.54556  0.54556  0.54556
 *O               0.00116  0.00047  0.00000  0.00000  0.00000  0.00000
 *OH              0.00960  0.00568  0.00003  0.00002  0.00001  0.00001
 *O2              0.00213  0.00092  0.00000  0.00000  0.00000  0.00000

  * THERMODYNAMIC PROPERTIES FITTED TO 20000.K

 NOTE. WEIGHT FRACTION OF FUEL IN TOTAL FUELS AND OF OXIDANT IN TOTAL OXIDANTS

              THEORETICAL ROCKET PERFORMANCE ASSUMING EQUILIBRIUM

           COMPOSITION DURING EXPANSION FROM INFINITE AREA COMBUSTOR

 Pin =   464.1 PSIA
 CASE = AESIR__________

             REACTANT                    WT FRACTION      ENERGY      TEMP
                                          (SEE NOTE)     KJ/KG-MOL      K  
 FUEL        C                            0.0200000         0.000      0.000
 FUEL        paraffin                     0.9800000  -1860600.000    298.150
 OXIDANT     N2O                          1.0000000     81849.014    293.000

 O/F=    6.00000  %FUEL= 14.285714  R,EQ.RATIO= 1.517056  PHI,EQ.RATIO= 1.517056

                 CHAMBER   THROAT     EXIT     EXIT     EXIT     EXIT
 Pinf/P            1.0000   1.7636   20.000   25.000   30.000   35.000
 P, BAR            32.000   18.145   1.6000   1.2800   1.0667  0.91429
 T, K             3249.33  3006.55  1949.27  1863.17  1795.24  1739.51
 RHO, KG/CU M    3.0096 0 1.8600 0 2.5585-1 2.1415-1 1.8522-1 1.6385-1
 H, KJ/KG         1333.97   755.74 -1175.56 -1312.00 -1418.98 -1506.36
 U, KJ/KG          270.70  -219.81 -1800.92 -1909.70 -1994.87 -2064.37
 G, KJ/KG        -31457.1 -29585.2 -20846.9 -20114.5 -19535.9 -19060.9
 S, KJ/(KG)(K)    10.0916  10.0916  10.0916  10.0916  10.0916  10.0916

 M, (1/n)          25.409   25.624   25.917   25.918   25.919   25.920
 (dLV/dLP)t      -1.01068 -1.00621 -1.00008 -1.00004 -1.00003 -1.00002
 (dLV/dLT)p        1.2103   1.1316   1.0022   1.0013   1.0008   1.0006
 Cp, KJ/(KG)(K)    3.0206   2.5548   1.5946   1.5809   1.5722   1.5661
 GAMMAs            1.1737   1.1854   1.2531   1.2553   1.2568   1.2579
 SON VEL,M/SEC     1117.1   1075.4    885.2    866.2    850.8    837.8
 MACH NUMBER        0.000    1.000    2.531    2.656    2.758    2.845

 PERFORMANCE PARAMETERS

 Ae/At                      1.0000   3.4895   4.0601   4.6022   5.1218
 CSTAR, M/SEC               1599.9   1599.9   1599.9   1599.9   1599.9
 CF                         0.6722   1.4003   1.4379   1.4667   1.4898
 Ivac, M/SEC                1982.5   2519.5   2560.2   2591.9   2617.5
 Isp, M/SEC                 1075.4   2240.3   2300.4   2346.5   2383.4

 MASS FRACTIONS

 *CO              0.22497  0.21923  0.20103  0.19877  0.19678  0.19497
 *CO2             0.10596  0.11499  0.14360  0.14714  0.15028  0.15311
 *H               0.00056  0.00037  0.00001  0.00001  0.00000  0.00000
 HCO              0.00001  0.00000  0.00000  0.00000  0.00000  0.00000
 HO2              0.00001  0.00000  0.00000  0.00000  0.00000  0.00000
 *H2              0.00486  0.00482  0.00582  0.00599  0.00613  0.00626
 H2O              0.10262  0.10673  0.10395  0.10252  0.10124  0.10009
 *NO              0.00521  0.00260  0.00000  0.00000  0.00000  0.00000
 *N2              0.54311  0.54434  0.54555  0.54556  0.54556  0.54556
 *O               0.00113  0.00045  0.00000  0.00000  0.00000  0.00000
 *OH              0.00947  0.00557  0.00003  0.00002  0.00001  0.00000
 *O2              0.00207  0.00088  0.00000  0.00000  0.00000  0.00000

  * THERMODYNAMIC PROPERTIES FITTED TO 20000.K

 NOTE. WEIGHT FRACTION OF FUEL IN TOTAL FUELS AND OF OXIDANT IN TOTAL OXIDANTS

              THEORETICAL ROCKET PERFORMANCE ASSUMING EQUILIBRIUM

           COMPOSITION DURING EXPANSION FROM INFINITE AREA COMBUSTOR

 Pin =   493.1 PSIA
 CASE = AESIR__________

             REACTANT                    WT FRACTION      ENERGY      TEMP
                                          (SEE NOTE)     KJ/KG-MOL      K  
 FUEL        C                            0.0200000         0.000      0.000
 FUEL        paraffin                     0.9800000  -1860600.000    298.150
 OXIDANT     N2O                          1.0000000     81849.014    293.000

 O/F=    6.00000  %FUEL= 14.285714  R,EQ.RATIO= 1.517056  PHI,EQ.RATIO= 1.517056

                 CHAMBER   THROAT     EXIT     EXIT     EXIT     EXIT
 Pinf/P            1.0000   1.7641   20.000   25.000   30.000   35.000
 P, BAR            34.000   19.273   1.7000   1.3600   1.1333  0.97143
 T, K             3253.80  3009.24  1948.85  1862.75  1794.82  1739.09
 RHO, KG/CU M    3.1944 0 1.9743 0 2.7190-1 2.2759-1 1.9684-1 1.7413-1
 H, KJ/KG         1333.97   754.94 -1176.31 -1312.72 -1419.67 -1507.04
 U, KJ/KG          269.62  -221.24 -1801.53 -1910.28 -1995.42 -2064.90
 G, KJ/KG        -31437.7 -29553.5 -20804.7 -20073.9 -19496.7 -19022.8
 S, KJ/(KG)(K)    10.0718  10.0718  10.0718  10.0718  10.0718  10.0718

 M, (1/n)          25.418   25.631   25.917   25.918   25.919   25.920
 (dLV/dLP)t      -1.01049 -1.00606 -1.00007 -1.00004 -1.00003 -1.00002
 (dLV/dLT)p        1.2064   1.1286   1.0021   1.0013   1.0008   1.0005
 Cp, KJ/(KG)(K)    2.9935   2.5329   1.5939   1.5805   1.5719   1.5659
 GAMMAs            1.1744   1.1863   1.2532   1.2554   1.2569   1.2579
 SON VEL,M/SEC     1118.0   1076.1    885.2    866.1    850.7    837.7
 MACH NUMBER        0.000    1.000    2.531    2.656    2.759    2.845

 PERFORMANCE PARAMETERS

 Ae/At                      1.0000   3.4873   4.0575   4.5993   5.1186
 CSTAR, M/SEC               1600.3   1600.3   1600.3   1600.3   1600.3
 CF                         0.6725   1.4002   1.4377   1.4665   1.4896
 Ivac, M/SEC                1983.2   2519.7   2560.5   2592.1   2617.7
 Isp, M/SEC                 1076.1   2240.7   2300.7   2346.8   2383.7

 MASS FRACTIONS

 *CO              0.22487  0.21916  0.20102  0.19876  0.19676  0.19496
 *CO2             0.10613  0.11509  0.14361  0.14716  0.15030  0.15313
 *H               0.00055  0.00036  0.00001  0.00001  0.00000  0.00000
 HCO              0.00001  0.00000  0.00000  0.00000  0.00000  0.00000
 HO2              0.00001  0.00000  0.00000  0.00000  0.00000  0.00000
 *H2              0.00486  0.00482  0.00582  0.00599  0.00614  0.00627
 H2O              0.10282  0.10688  0.10394  0.10251  0.10123  0.10008
 *NO              0.00516  0.00256  0.00000  0.00000  0.00000  0.00000
 *N2              0.54313  0.54436  0.54555  0.54556  0.54556  0.54556
 *O               0.00109  0.00043  0.00000  0.00000  0.00000  0.00000
 *OH              0.00934  0.00547  0.00003  0.00002  0.00001  0.00000
 *O2              0.00201  0.00085  0.00000  0.00000  0.00000  0.00000

  * THERMODYNAMIC PROPERTIES FITTED TO 20000.K

 NOTE. WEIGHT FRACTION OF FUEL IN TOTAL FUELS AND OF OXIDANT IN TOTAL OXIDANTS

              THEORETICAL ROCKET PERFORMANCE ASSUMING EQUILIBRIUM

           COMPOSITION DURING EXPANSION FROM INFINITE AREA COMBUSTOR

 Pin =   522.1 PSIA
 CASE = AESIR__________

             REACTANT                    WT FRACTION      ENERGY      TEMP
                                          (SEE NOTE)     KJ/KG-MOL      K  
 FUEL        C                            0.0200000         0.000      0.000
 FUEL        paraffin                     0.9800000  -1860600.000    298.150
 OXIDANT     N2O                          1.0000000     81849.014    293.000

 O/F=    6.00000  %FUEL= 14.285714  R,EQ.RATIO= 1.517056  PHI,EQ.RATIO= 1.517056

                 CHAMBER   THROAT     EXIT     EXIT     EXIT     EXIT
 Pinf/P            1.0000   1.7646   20.000   25.000   30.000   35.000
 P, BAR            36.000   20.401   1.8000   1.4400   1.2000   1.0286
 T, K             3257.98  3011.74  1948.46  1862.35  1794.43  1738.71
 RHO, KG/CU M    3.3791 0 2.0886 0 2.8796-1 2.4103-1 2.0847-1 1.8442-1
 H, KJ/KG         1333.97   754.19 -1177.01 -1313.39 -1420.31 -1507.66
 U, KJ/KG          268.61  -222.57 -1802.10 -1910.82 -1995.94 -2065.40
 G, KJ/KG        -31418.8 -29523.2 -20765.1 -20035.8 -19459.9 -18987.1
 S, KJ/(KG)(K)    10.0531  10.0531  10.0531  10.0531  10.0531  10.0531

 M, (1/n)          25.427   25.637   25.917   25.918   25.919   25.920
 (dLV/dLP)t      -1.01031 -1.00593 -1.00007 -1.00004 -1.00003 -1.00002
 (dLV/dLT)p        1.2027   1.1257   1.0021   1.0012   1.0008   1.0005
 Cp, KJ/(KG)(K)    2.9683   2.5125   1.5932   1.5801   1.5716   1.5657
 GAMMAs            1.1751   1.1872   1.2533   1.2555   1.2569   1.2580
 SON VEL,M/SEC     1118.9   1076.8    885.1    866.1    850.6    837.6
 MACH NUMBER        0.000    1.000    2.532    2.657    2.759    2.846

 PERFORMANCE PARAMETERS

 Ae/At                      1.0000   3.4853   4.0552   4.5967   5.1157
 CSTAR, M/SEC               1600.7   1600.7   1600.7   1600.7   1600.7
 CF                         0.6727   1.4000   1.4376   1.4663   1.4894
 Ivac, M/SEC                1983.9   2519.9   2560.7   2592.3   2617.9
 Isp, M/SEC                 1076.8   2241.0   2301.0   2347.0   2384.0

 MASS FRACTIONS

 *CO              0.22477  0.21910  0.20101  0.19875  0.19675  0.19495
 *CO2             0.10628  0.11519  0.14363  0.14718  0.15032  0.15315
 *H               0.00054  0.00035  0.00001  0.00001  0.00000  0.00000
 HCO              0.00001  0.00000  0.00000  0.00000  0.00000  0.00000
 HO2              0.00001  0.00000  0.00000  0.00000  0.00000  0.00000
 *H2              0.00485  0.00482  0.00583  0.00599  0.00614  0.00627
 H2O              0.10302  0.10702  0.10394  0.10250  0.10123  0.10007
 *NO              0.00511  0.00252  0.00000  0.00000  0.00000  0.00000
 *N2              0.54316  0.54438  0.54555  0.54556  0.54556  0.54556
 *O               0.00106  0.00042  0.00000  0.00000  0.00000  0.00000
 *OH              0.00922  0.00538  0.00003  0.00001  0.00001  0.00000
 *O2              0.00195  0.00082  0.00000  0.00000  0.00000  0.00000

  * THERMODYNAMIC PROPERTIES FITTED TO 20000.K

 NOTE. WEIGHT FRACTION OF FUEL IN TOTAL FUELS AND OF OXIDANT IN TOTAL OXIDANTS

              THEORETICAL ROCKET PERFORMANCE ASSUMING EQUILIBRIUM

           COMPOSITION DURING EXPANSION FROM INFINITE AREA COMBUSTOR

 Pin =   551.1 PSIA
 CASE = AESIR__________

             REACTANT                    WT FRACTION      ENERGY      TEMP
                                          (SEE NOTE)     KJ/KG-MOL      K  
 FUEL        C                            0.0200000         0.000      0.000
 FUEL        paraffin                     0.9800000  -1860600.000    298.150
 OXIDANT     N2O                          1.0000000     81849.014    293.000

 O/F=    6.00000  %FUEL= 14.285714  R,EQ.RATIO= 1.517056  PHI,EQ.RATIO= 1.517056

                 CHAMBER   THROAT     EXIT     EXIT     EXIT     EXIT
 Pinf/P            1.0000   1.7651   20.000   25.000   30.000   35.000
 P, BAR            38.000   21.528   1.9000   1.5200   1.2667   1.0857
 T, K             3261.89  3014.07  1948.10  1861.98  1794.06  1738.35
 RHO, KG/CU M    3.5637 0 2.2028 0 3.0401-1 2.5447-1 2.2010-1 1.9470-1
 H, KJ/KG         1333.97   753.49 -1177.66 -1314.01 -1420.91 -1508.24
 U, KJ/KG          267.66  -223.81 -1802.63 -1911.32 -1996.42 -2065.87
 G, KJ/KG        -31400.5 -29494.0 -20727.7 -19999.8 -19425.1 -18953.3
 S, KJ/(KG)(K)    10.0354  10.0354  10.0354  10.0354  10.0354  10.0354

 M, (1/n)          25.434   25.643   25.917   25.919   25.919   25.920
 (dLV/dLP)t      -1.01014 -1.00581 -1.00007 -1.00004 -1.00003 -1.00002
 (dLV/dLT)p        1.1992   1.1231   1.0020   1.0012   1.0008   1.0005
 Cp, KJ/(KG)(K)    2.9448   2.4936   1.5926   1.5797   1.5714   1.5655
 GAMMAs            1.1758   1.1879   1.2534   1.2555   1.2570   1.2580
 SON VEL,M/SEC     1119.7   1077.5    885.1    866.0    850.5    837.6
 MACH NUMBER        0.000    1.000    2.532    2.657    2.760    2.847

 PERFORMANCE PARAMETERS

 Ae/At                      1.0000   3.4834   4.0530   4.5942   5.1130
 CSTAR, M/SEC               1601.0   1601.0   1601.0   1601.0   1601.0
 CF                         0.6730   1.3999   1.4374   1.4661   1.4892
 Ivac, M/SEC                1984.5   2520.1   2560.9   2592.5   2618.1
 Isp, M/SEC                 1077.5   2241.3   2301.3   2347.3   2384.2

 MASS FRACTIONS

 *CO              0.22467  0.21905  0.20100  0.19874  0.19674  0.19493
 *CO2             0.10643  0.11528  0.14364  0.14719  0.15034  0.15317
 *H               0.00053  0.00035  0.00001  0.00001  0.00000  0.00000
 HCO              0.00001  0.00000  0.00000  0.00000  0.00000  0.00000
 HO2              0.00001  0.00000  0.00000  0.00000  0.00000  0.00000
 *H2              0.00485  0.00482  0.00583  0.00599  0.00614  0.00627
 H2O              0.10320  0.10714  0.10393  0.10250  0.10122  0.10006
 *NO              0.00507  0.00248  0.00000  0.00000  0.00000  0.00000
 *N2              0.54318  0.54439  0.54555  0.54556  0.54556  0.54556
 *O               0.00103  0.00040  0.00000  0.00000  0.00000  0.00000
 *OH              0.00911  0.00529  0.00003  0.00001  0.00001  0.00000
 *O2              0.00190  0.00079  0.00000  0.00000  0.00000  0.00000

  * THERMODYNAMIC PROPERTIES FITTED TO 20000.K

 NOTE. WEIGHT FRACTION OF FUEL IN TOTAL FUELS AND OF OXIDANT IN TOTAL OXIDANTS

              THEORETICAL ROCKET PERFORMANCE ASSUMING EQUILIBRIUM

           COMPOSITION DURING EXPANSION FROM INFINITE AREA COMBUSTOR

 Pin =   580.2 PSIA
 CASE = AESIR__________

             REACTANT                    WT FRACTION      ENERGY      TEMP
                                          (SEE NOTE)     KJ/KG-MOL      K  
 FUEL        C                            0.0200000         0.000      0.000
 FUEL        paraffin                     0.9800000  -1860600.000    298.150
 OXIDANT     N2O                          1.0000000     81849.014    293.000

 O/F=    6.00000  %FUEL= 14.285714  R,EQ.RATIO= 1.517056  PHI,EQ.RATIO= 1.517056

                 CHAMBER   THROAT     EXIT     EXIT     EXIT     EXIT
 Pinf/P            1.0000   1.7656   20.000   25.000   30.000   35.000
 P, BAR            40.000   22.655   2.0000   1.6000   1.3333   1.1429
 T, K             3265.58  3016.25  1947.76  1861.64  1793.72  1738.01
 RHO, KG/CU M    3.7481 0 2.3170 0 3.2007-1 2.6792-1 2.3172-1 2.0499-1
 H, KJ/KG         1333.97   752.83 -1178.26 -1314.59 -1421.47 -1508.78
 U, KJ/KG          266.77  -224.98 -1803.12 -1911.79 -1996.87 -2066.30
 G, KJ/KG        -31382.8 -29466.0 -20692.2 -19965.7 -19392.1 -18921.3
 S, KJ/(KG)(K)    10.0187  10.0187  10.0187  10.0187  10.0187  10.0187

 M, (1/n)          25.442   25.648   25.917   25.919   25.919   25.920
 (dLV/dLP)t      -1.00998 -1.00569 -1.00007 -1.00004 -1.00002 -1.00002
 (dLV/dLT)p        1.1960   1.1206   1.0019   1.0012   1.0007   1.0005
 Cp, KJ/(KG)(K)    2.9227   2.4759   1.5921   1.5793   1.5711   1.5654
 GAMMAs            1.1764   1.1887   1.2535   1.2556   1.2570   1.2580
 SON VEL,M/SEC     1120.5   1078.1    885.0    865.9    850.5    837.5
 MACH NUMBER        0.000    1.000    2.533    2.658    2.760    2.847

 PERFORMANCE PARAMETERS

 Ae/At                      1.0000   3.4817   4.0510   4.5919   5.1104
 CSTAR, M/SEC               1601.3   1601.3   1601.3   1601.3   1601.3
 CF                         0.6732   1.3998   1.4373   1.4660   1.4890
 Ivac, M/SEC                1985.1   2520.3   2561.0   2592.6   2618.2
 Isp, M/SEC                 1078.1   2241.5   2301.5   2347.5   2384.4

 MASS FRACTIONS

 *CO              0.22459  0.21900  0.20099  0.19873  0.19673  0.19492
 *CO2             0.10656  0.11536  0.14365  0.14721  0.15035  0.15319
 *H               0.00052  0.00034  0.00001  0.00001  0.00000  0.00000
 HCO              0.00001  0.00000  0.00000  0.00000  0.00000  0.00000
 HO2              0.00001  0.00000  0.00000  0.00000  0.00000  0.00000
 *H2              0.00485  0.00482  0.00583  0.00599  0.00614  0.00627
 H2O              0.10337  0.10727  0.10393  0.10249  0.10121  0.10005
 *NO              0.00502  0.00245  0.00000  0.00000  0.00000  0.00000
 *N2              0.54320  0.54441  0.54555  0.54556  0.54556  0.54556
 *O               0.00100  0.00039  0.00000  0.00000  0.00000  0.00000
 *OH              0.00900  0.00520  0.00003  0.00001  0.00001  0.00000
 *O2              0.00185  0.00076  0.00000  0.00000  0.00000  0.00000

  * THERMODYNAMIC PROPERTIES FITTED TO 20000.K

 NOTE. WEIGHT FRACTION OF FUEL IN TOTAL FUELS AND OF OXIDANT IN TOTAL OXIDANTS

              THEORETICAL ROCKET PERFORMANCE ASSUMING EQUILIBRIUM

           COMPOSITION DURING EXPANSION FROM INFINITE AREA COMBUSTOR

 Pin =   609.2 PSIA
 CASE = AESIR__________

             REACTANT                    WT FRACTION      ENERGY      TEMP
                                          (SEE NOTE)     KJ/KG-MOL      K  
 FUEL        C                            0.0200000         0.000      0.000
 FUEL        paraffin                     0.9800000  -1860600.000    298.150
 OXIDANT     N2O                          1.0000000     81849.014    293.000

 O/F=    6.00000  %FUEL= 14.285714  R,EQ.RATIO= 1.517056  PHI,EQ.RATIO= 1.517056

                 CHAMBER   THROAT     EXIT     EXIT     EXIT     EXIT
 Pinf/P            1.0000   1.7660   20.000   25.000   30.000   35.000
 P, BAR            42.000   23.782   2.1000   1.6800   1.4000   1.2000
 T, K             3269.06  3018.30  1947.44  1861.32  1793.40  1737.69
 RHO, KG/CU M    3.9324 0 2.4310 0 3.3613-1 2.8136-1 2.4335-1 2.1528-1
 H, KJ/KG         1333.97   752.20 -1178.82 -1315.13 -1421.99 -1509.29
 U, KJ/KG          265.93  -226.08 -1803.58 -1912.23 -1997.29 -2066.71
 G, KJ/KG        -31365.5 -29439.0 -20658.5 -19933.4 -19360.9 -18890.9
 S, KJ/(KG)(K)    10.0027  10.0027  10.0027  10.0027  10.0027  10.0027

 M, (1/n)          25.449   25.653   25.917   25.919   25.919   25.920
 (dLV/dLP)t      -1.00983 -1.00559 -1.00007 -1.00004 -1.00002 -1.00002
 (dLV/dLT)p        1.1929   1.1183   1.0019   1.0011   1.0007   1.0005
 Cp, KJ/(KG)(K)    2.9019   2.4594   1.5916   1.5790   1.5709   1.5652
 GAMMAs            1.1770   1.1894   1.2536   1.2556   1.2570   1.2581
 SON VEL,M/SEC     1121.2   1078.7    885.0    865.9    850.4    837.4
 MACH NUMBER        0.000    1.000    2.533    2.658    2.761    2.848

 PERFORMANCE PARAMETERS

 Ae/At                      1.0000   3.4800   4.0491   4.5898   5.1080
 CSTAR, M/SEC               1601.7   1601.7   1601.7   1601.7   1601.7
 CF                         0.6735   1.3997   1.4371   1.4658   1.4889
 Ivac, M/SEC                1985.6   2520.5   2561.2   2592.8   2618.4
 Isp, M/SEC                 1078.7   2241.8   2301.8   2347.8   2384.6

 MASS FRACTIONS

 *CO              0.22450  0.21895  0.20099  0.19872  0.19672  0.19491
 *CO2             0.10669  0.11544  0.14366  0.14722  0.15037  0.15321
 *H               0.00051  0.00033  0.00001  0.00000  0.00000  0.00000
 HCO              0.00001  0.00000  0.00000  0.00000  0.00000  0.00000
 HO2              0.00001  0.00000  0.00000  0.00000  0.00000  0.00000
 *H2              0.00484  0.00481  0.00583  0.00599  0.00614  0.00627
 H2O              0.10353  0.10738  0.10393  0.10249  0.10121  0.10005
 *NO              0.00498  0.00241  0.00000  0.00000  0.00000  0.00000
 *N2              0.54322  0.54442  0.54555  0.54556  0.54556  0.54556
 *O               0.00097  0.00038  0.00000  0.00000  0.00000  0.00000
 *OH              0.00890  0.00512  0.00003  0.00001  0.00001  0.00000
 *O2              0.00181  0.00074  0.00000  0.00000  0.00000  0.00000

  * THERMODYNAMIC PROPERTIES FITTED TO 20000.K

 NOTE. WEIGHT FRACTION OF FUEL IN TOTAL FUELS AND OF OXIDANT IN TOTAL OXIDANTS

              THEORETICAL ROCKET PERFORMANCE ASSUMING EQUILIBRIUM

           COMPOSITION DURING EXPANSION FROM INFINITE AREA COMBUSTOR

 Pin =   638.2 PSIA
 CASE = AESIR__________

             REACTANT                    WT FRACTION      ENERGY      TEMP
                                          (SEE NOTE)     KJ/KG-MOL      K  
 FUEL        C                            0.0200000         0.000      0.000
 FUEL        paraffin                     0.9800000  -1860600.000    298.150
 OXIDANT     N2O                          1.0000000     81849.014    293.000

 O/F=    6.00000  %FUEL= 14.285714  R,EQ.RATIO= 1.517056  PHI,EQ.RATIO= 1.517056

                 CHAMBER   THROAT     EXIT     EXIT     EXIT     EXIT
 Pinf/P            1.0000   1.7664   20.000   25.000   30.000   35.000
 P, BAR            44.000   24.909   2.2000   1.7600   1.4667   1.2571
 T, K             3272.35  3020.22  1947.14  1861.02  1793.10  1737.40
 RHO, KG/CU M    4.1166 0 2.5450 0 3.5219-1 2.9481-1 2.5499-1 2.2557-1
 H, KJ/KG         1333.97   751.61 -1179.35 -1315.64 -1422.48 -1509.77
 U, KJ/KG          265.13  -227.12 -1804.02 -1912.64 -1997.68 -2067.09
 G, KJ/KG        -31348.7 -29412.9 -20626.5 -19902.6 -19331.1 -18862.1
 S, KJ/(KG)(K)     9.9875   9.9875   9.9875   9.9875   9.9875   9.9875

 M, (1/n)          25.456   25.657   25.917   25.919   25.919   25.920
 (dLV/dLP)t      -1.00969 -1.00549 -1.00006 -1.00004 -1.00002 -1.00002
 (dLV/dLT)p        1.1901   1.1161   1.0018   1.0011   1.0007   1.0005
 Cp, KJ/(KG)(K)    2.8823   2.4438   1.5911   1.5787   1.5707   1.5651
 GAMMAs            1.1776   1.1900   1.2536   1.2557   1.2571   1.2581
 SON VEL,M/SEC     1121.9   1079.2    884.9    865.8    850.3    837.3
 MACH NUMBER        0.000    1.000    2.534    2.659    2.761    2.848

 PERFORMANCE PARAMETERS

 Ae/At                      1.0000   3.4785   4.0473   4.5878   5.1058
 CSTAR, M/SEC               1601.9   1601.9   1601.9   1601.9   1601.9
 CF                         0.6737   1.3996   1.4370   1.4657   1.4887
 Ivac, M/SEC                1986.1   2520.6   2561.3   2592.9   2618.5
 Isp, M/SEC                 1079.2   2242.0   2302.0   2348.0   2384.8

 MASS FRACTIONS

 *CO              0.22442  0.21890  0.20098  0.19871  0.19671  0.19490
 *CO2             0.10682  0.11551  0.14367  0.14723  0.15038  0.15322
 COOH             0.00001  0.00000  0.00000  0.00000  0.00000  0.00000
 *H               0.00050  0.00033  0.00001  0.00000  0.00000  0.00000
 HCO              0.00001  0.00000  0.00000  0.00000  0.00000  0.00000
 HO2              0.00001  0.00000  0.00000  0.00000  0.00000  0.00000
 *H2              0.00484  0.00481  0.00583  0.00599  0.00614  0.00627
 H2O              0.10368  0.10749  0.10392  0.10248  0.10120  0.10004
 *NO              0.00493  0.00238  0.00000  0.00000  0.00000  0.00000
 *N2              0.54324  0.54444  0.54555  0.54556  0.54556  0.54556
 *O               0.00095  0.00036  0.00000  0.00000  0.00000  0.00000
 *OH              0.00880  0.00505  0.00003  0.00001  0.00001  0.00000
 *O2              0.00177  0.00072  0.00000  0.00000  0.00000  0.00000

  * THERMODYNAMIC PROPERTIES FITTED TO 20000.K

 NOTE. WEIGHT FRACTION OF FUEL IN TOTAL FUELS AND OF OXIDANT IN TOTAL OXIDANTS

              THEORETICAL ROCKET PERFORMANCE ASSUMING EQUILIBRIUM

           COMPOSITION DURING EXPANSION FROM INFINITE AREA COMBUSTOR

 Pin =   667.2 PSIA
 CASE = AESIR__________

             REACTANT                    WT FRACTION      ENERGY      TEMP
                                          (SEE NOTE)     KJ/KG-MOL      K  
 FUEL        C                            0.0200000         0.000      0.000
 FUEL        paraffin                     0.9800000  -1860600.000    298.150
 OXIDANT     N2O                          1.0000000     81849.014    293.000

 O/F=    6.00000  %FUEL= 14.285714  R,EQ.RATIO= 1.517056  PHI,EQ.RATIO= 1.517056

                 CHAMBER   THROAT     EXIT     EXIT     EXIT     EXIT
 Pinf/P            1.0000   1.7668   20.000   25.000   30.000   35.000
 P, BAR            46.000   26.035   2.3000   1.8400   1.5333   1.3143
 T, K             3275.47  3022.04  1946.86  1860.73  1792.82  1737.12
 RHO, KG/CU M    4.3007 0 2.6590 0 3.6825-1 3.0826-1 2.6662-1 2.3586-1
 H, KJ/KG         1333.97   751.05 -1179.85 -1316.12 -1422.95 -1510.22
 U, KJ/KG          264.38  -228.10 -1804.42 -1913.02 -1998.05 -2067.44
 G, KJ/KG        -31332.3 -29387.7 -20595.9 -19873.2 -19302.7 -18834.5
 S, KJ/(KG)(K)     9.9730   9.9730   9.9730   9.9730   9.9730   9.9730

 M, (1/n)          25.462   25.662   25.917   25.919   25.919   25.920
 (dLV/dLP)t      -1.00956 -1.00539 -1.00006 -1.00004 -1.00002 -1.00002
 (dLV/dLT)p        1.1873   1.1140   1.0018   1.0011   1.0007   1.0005
 Cp, KJ/(KG)(K)    2.8638   2.4292   1.5907   1.5784   1.5705   1.5649
 GAMMAs            1.1781   1.1907   1.2537   1.2557   1.2571   1.2581
 SON VEL,M/SEC     1122.5   1079.7    884.9    865.8    850.3    837.3
 MACH NUMBER        0.000    1.000    2.534    2.659    2.762    2.849

 PERFORMANCE PARAMETERS

 Ae/At                      1.0000   3.4770   4.0456   4.5859   5.1037
 CSTAR, M/SEC               1602.2   1602.2   1602.2   1602.2   1602.2
 CF                         0.6739   1.3995   1.4369   1.4656   1.4886
 Ivac, M/SEC                1986.6   2520.8   2561.5   2593.1   2618.7
 Isp, M/SEC                 1079.7   2242.2   2302.2   2348.2   2385.0

 MASS FRACTIONS

 *CO              0.22435  0.21886  0.20097  0.19871  0.19670  0.19489
 *CO2             0.10693  0.11558  0.14368  0.14724  0.15039  0.15324
 COOH             0.00001  0.00000  0.00000  0.00000  0.00000  0.00000
 *H               0.00050  0.00032  0.00001  0.00000  0.00000  0.00000
 HCO              0.00001  0.00000  0.00000  0.00000  0.00000  0.00000
 HO2              0.00001  0.00000  0.00000  0.00000  0.00000  0.00000
 *H2              0.00484  0.00481  0.00583  0.00599  0.00614  0.00627
 H2O              0.10383  0.10759  0.10392  0.10248  0.10120  0.10004
 *NO              0.00489  0.00235  0.00000  0.00000  0.00000  0.00000
 *N2              0.54326  0.54445  0.54555  0.54556  0.54556  0.54556
 *O               0.00092  0.00035  0.00000  0.00000  0.00000  0.00000
 *OH              0.00871  0.00498  0.00003  0.00001  0.00001  0.00000
 *O2              0.00173  0.00070  0.00000  0.00000  0.00000  0.00000

  * THERMODYNAMIC PROPERTIES FITTED TO 20000.K

 NOTE. WEIGHT FRACTION OF FUEL IN TOTAL FUELS AND OF OXIDANT IN TOTAL OXIDANTS

              THEORETICAL ROCKET PERFORMANCE ASSUMING EQUILIBRIUM

           COMPOSITION DURING EXPANSION FROM INFINITE AREA COMBUSTOR

 Pin =   696.2 PSIA
 CASE = AESIR__________

             REACTANT                    WT FRACTION      ENERGY      TEMP
                                          (SEE NOTE)     KJ/KG-MOL      K  
 FUEL        C                            0.0200000         0.000      0.000
 FUEL        paraffin                     0.9800000  -1860600.000    298.150
 OXIDANT     N2O                          1.0000000     81849.014    293.000

 O/F=    6.00000  %FUEL= 14.285714  R,EQ.RATIO= 1.517056  PHI,EQ.RATIO= 1.517056

                 CHAMBER   THROAT     EXIT     EXIT     EXIT     EXIT
 Pinf/P            1.0000   1.7672   20.000   25.000   30.000   35.000
 P, BAR            48.000   27.162   2.4000   1.9200   1.6000   1.3714
 T, K             3278.44  3023.75  1946.59  1860.46  1792.55  1736.85
 RHO, KG/CU M    4.4847 0 2.7729 0 3.8432-1 3.2171-1 2.7825-1 2.4615-1
 H, KJ/KG         1333.97   750.51 -1180.33 -1316.57 -1423.38 -1510.64
 U, KJ/KG          263.66  -229.03 -1804.81 -1913.39 -1998.40 -2067.78
 G, KJ/KG        -31316.4 -29363.4 -20566.6 -19845.1 -19275.6 -18808.2
 S, KJ/(KG)(K)     9.9591   9.9591   9.9591   9.9591   9.9591   9.9591

 M, (1/n)          25.468   25.666   25.917   25.919   25.919   25.920
 (dLV/dLP)t      -1.00943 -1.00530 -1.00006 -1.00004 -1.00002 -1.00001
 (dLV/dLT)p        1.1847   1.1121   1.0018   1.0010   1.0007   1.0005
 Cp, KJ/(KG)(K)    2.8462   2.4154   1.5902   1.5782   1.5704   1.5648
 GAMMAs            1.1786   1.1913   1.2537   1.2557   1.2571   1.2581
 SON VEL,M/SEC     1123.2   1080.2    884.8    865.7    850.2    837.2
 MACH NUMBER        0.000    1.000    2.534    2.660    2.762    2.849

 PERFORMANCE PARAMETERS

 Ae/At                      1.0000   3.4756   4.0440   4.5841   5.1018
 CSTAR, M/SEC               1602.5   1602.5   1602.5   1602.5   1602.5
 CF                         0.6741   1.3994   1.4368   1.4655   1.4885
 Ivac, M/SEC                1987.0   2520.9   2561.6   2593.2   2618.8
 Isp, M/SEC                 1080.2   2242.5   2302.4   2348.3   2385.2

 MASS FRACTIONS

 *CO              0.22428  0.21881  0.20097  0.19870  0.19669  0.19488
 *CO2             0.10705  0.11564  0.14369  0.14726  0.15041  0.15325
 COOH             0.00001  0.00000  0.00000  0.00000  0.00000  0.00000
 *H               0.00049  0.00032  0.00001  0.00000  0.00000  0.00000
 HCO              0.00001  0.00000  0.00000  0.00000  0.00000  0.00000
 HO2              0.00001  0.00000  0.00000  0.00000  0.00000  0.00000
 *H2              0.00483  0.00481  0.00583  0.00599  0.00614  0.00627
 H2O              0.10397  0.10769  0.10392  0.10247  0.10119  0.10003
 *NO              0.00485  0.00232  0.00000  0.00000  0.00000  0.00000
 *N2              0.54328  0.54447  0.54555  0.54556  0.54556  0.54556
 *O               0.00090  0.00034  0.00000  0.00000  0.00000  0.00000
 *OH              0.00862  0.00491  0.00003  0.00001  0.00001  0.00000
 *O2              0.00169  0.00068  0.00000  0.00000  0.00000  0.00000

  * THERMODYNAMIC PROPERTIES FITTED TO 20000.K

 NOTE. WEIGHT FRACTION OF FUEL IN TOTAL FUELS AND OF OXIDANT IN TOTAL OXIDANTS

              THEORETICAL ROCKET PERFORMANCE ASSUMING EQUILIBRIUM

           COMPOSITION DURING EXPANSION FROM INFINITE AREA COMBUSTOR

 Pin =   725.2 PSIA
 CASE = AESIR__________

             REACTANT                    WT FRACTION      ENERGY      TEMP
                                          (SEE NOTE)     KJ/KG-MOL      K  
 FUEL        C                            0.0200000         0.000      0.000
 FUEL        paraffin                     0.9800000  -1860600.000    298.150
 OXIDANT     N2O                          1.0000000     81849.014    293.000

 O/F=    6.00000  %FUEL= 14.285714  R,EQ.RATIO= 1.517056  PHI,EQ.RATIO= 1.517056

                 CHAMBER   THROAT     EXIT     EXIT     EXIT     EXIT
 Pinf/P            1.0000   1.7676   20.000   25.000   30.000   35.000
 P, BAR            50.000   28.288   2.5000   2.0000   1.6667   1.4286
 T, K             3281.26  3025.38  1946.34  1860.21  1792.30  1736.60
 RHO, KG/CU M    4.6686 0 2.8867 0 4.0039-1 3.3516-1 2.8989-1 2.5645-1
 H, KJ/KG         1333.97   750.00 -1180.77 -1317.00 -1423.80 -1511.04
 U, KJ/KG          262.98  -229.92 -1805.17 -1913.73 -1998.73 -2068.10
 G, KJ/KG        -31300.8 -29339.7 -20538.6 -19818.2 -19249.6 -18782.9
 S, KJ/(KG)(K)     9.9458   9.9458   9.9458   9.9458   9.9458   9.9458

 M, (1/n)          25.474   25.670   25.918   25.919   25.919   25.920
 (dLV/dLP)t      -1.00931 -1.00521 -1.00006 -1.00003 -1.00002 -1.00001
 (dLV/dLT)p        1.1823   1.1103   1.0017   1.0010   1.0007   1.0004
 Cp, KJ/(KG)(K)    2.8295   2.4023   1.5899   1.5779   1.5702   1.5647
 GAMMAs            1.1791   1.1919   1.2538   1.2558   1.2571   1.2581
 SON VEL,M/SEC     1123.8   1080.7    884.8    865.7    850.2    837.2
 MACH NUMBER        0.000    1.000    2.535    2.660    2.762    2.849

 PERFORMANCE PARAMETERS

 Ae/At                      1.0000   3.4744   4.0425   4.5824   5.0999
 CSTAR, M/SEC               1602.7   1602.7   1602.7   1602.7   1602.7
 CF                         0.6743   1.3993   1.4367   1.4653   1.4883
 Ivac, M/SEC                1987.4   2521.1   2561.8   2593.3   2618.9
 Isp, M/SEC                 1080.7   2242.7   2302.6   2348.5   2385.4

 MASS FRACTIONS

 *CO              0.22421  0.21877  0.20096  0.19869  0.19669  0.19488
 *CO2             0.10715  0.11570  0.14370  0.14727  0.15042  0.15326
 COOH             0.00001  0.00000  0.00000  0.00000  0.00000  0.00000
 *H               0.00048  0.00031  0.00001  0.00000  0.00000  0.00000
 HCO              0.00001  0.00000  0.00000  0.00000  0.00000  0.00000
 HO2              0.00001  0.00000  0.00000  0.00000  0.00000  0.00000
 *H2              0.00483  0.00481  0.00583  0.00600  0.00614  0.00627
 H2O              0.10410  0.10778  0.10391  0.10247  0.10119  0.10003
 *NO              0.00482  0.00230  0.00000  0.00000  0.00000  0.00000
 *N2              0.54329  0.54448  0.54555  0.54556  0.54556  0.54556
 *O               0.00088  0.00033  0.00000  0.00000  0.00000  0.00000
 *OH              0.00854  0.00484  0.00003  0.00001  0.00001  0.00000
 *O2              0.00165  0.00066  0.00000  0.00000  0.00000  0.00000

  * THERMODYNAMIC PROPERTIES FITTED TO 20000.K

 NOTE. WEIGHT FRACTION OF FUEL IN TOTAL FUELS AND OF OXIDANT IN TOTAL OXIDANTS

              THEORETICAL ROCKET PERFORMANCE ASSUMING EQUILIBRIUM

           COMPOSITION DURING EXPANSION FROM INFINITE AREA COMBUSTOR

 Pin =   754.2 PSIA
 CASE = AESIR__________

             REACTANT                    WT FRACTION      ENERGY      TEMP
                                          (SEE NOTE)     KJ/KG-MOL      K  
 FUEL        C                            0.0200000         0.000      0.000
 FUEL        paraffin                     0.9800000  -1860600.000    298.150
 OXIDANT     N2O                          1.0000000     81849.014    293.000

 O/F=    6.00000  %FUEL= 14.285714  R,EQ.RATIO= 1.517056  PHI,EQ.RATIO= 1.517056

                 CHAMBER   THROAT     EXIT     EXIT     EXIT     EXIT
 Pinf/P            1.0000   1.7679   20.000   25.000   30.000   35.000
 P, BAR            52.000   29.413   2.6000   2.0800   1.7333   1.4857
 T, K             3283.96  3026.92  1946.10  1859.96  1792.05  1736.37
 RHO, KG/CU M    4.8523 0 3.0005 0 4.1645-1 3.4861-1 3.0152-1 2.6674-1
 H, KJ/KG         1333.97   749.52 -1181.20 -1317.40 -1424.19 -1511.42
 U, KJ/KG          262.33  -230.76 -1805.52 -1914.06 -1999.05 -2068.41
 G, KJ/KG        -31285.6 -29316.8 -20511.8 -19792.4 -19224.6 -18758.7
 S, KJ/(KG)(K)     9.9330   9.9330   9.9330   9.9330   9.9330   9.9330

 M, (1/n)          25.479   25.674   25.918   25.919   25.920   25.920
 (dLV/dLP)t      -1.00919 -1.00513 -1.00006 -1.00003 -1.00002 -1.00001
 (dLV/dLT)p        1.1799   1.1085   1.0017   1.0010   1.0006   1.0004
 Cp, KJ/(KG)(K)    2.8136   2.3899   1.5895   1.5777   1.5700   1.5646
 GAMMAs            1.1796   1.1924   1.2538   1.2558   1.2572   1.2582
 SON VEL,M/SEC     1124.3   1081.2    884.8    865.6    850.1    837.1
 MACH NUMBER        0.000    1.000    2.535    2.660    2.763    2.850

 PERFORMANCE PARAMETERS

 Ae/At                      1.0000   3.4731   4.0411   4.5808   5.0981
 CSTAR, M/SEC               1602.9   1602.9   1602.9   1602.9   1602.9
 CF                         0.6745   1.3992   1.4366   1.4652   1.4882
 Ivac, M/SEC                1987.8   2521.2   2561.9   2593.4   2619.0
 Isp, M/SEC                 1081.2   2242.8   2302.8   2348.7   2385.5

 MASS FRACTIONS

 *CO              0.22414  0.21874  0.20096  0.19869  0.19668  0.19487
 *CO2             0.10726  0.11576  0.14371  0.14728  0.15043  0.15328
 COOH             0.00001  0.00000  0.00000  0.00000  0.00000  0.00000
 *H               0.00048  0.00031  0.00001  0.00000  0.00000  0.00000
 HCO              0.00001  0.00000  0.00000  0.00000  0.00000  0.00000
 HO2              0.00001  0.00000  0.00000  0.00000  0.00000  0.00000
 *H2              0.00483  0.00481  0.00583  0.00600  0.00614  0.00627
 H2O              0.10422  0.10786  0.10391  0.10247  0.10118  0.10002
 *NO              0.00478  0.00227  0.00000  0.00000  0.00000  0.00000
 *N2              0.54331  0.54449  0.54555  0.54556  0.54556  0.54556
 *O               0.00086  0.00032  0.00000  0.00000  0.00000  0.00000
 *OH              0.00846  0.00478  0.00003  0.00001  0.00001  0.00000
 *O2              0.00162  0.00064  0.00000  0.00000  0.00000  0.00000

  * THERMODYNAMIC PROPERTIES FITTED TO 20000.K

 NOTE. WEIGHT FRACTION OF FUEL IN TOTAL FUELS AND OF OXIDANT IN TOTAL OXIDANTS

              THEORETICAL ROCKET PERFORMANCE ASSUMING EQUILIBRIUM

           COMPOSITION DURING EXPANSION FROM INFINITE AREA COMBUSTOR

 Pin =   783.2 PSIA
 CASE = AESIR__________

             REACTANT                    WT FRACTION      ENERGY      TEMP
                                          (SEE NOTE)     KJ/KG-MOL      K  
 FUEL        C                            0.0200000         0.000      0.000
 FUEL        paraffin                     0.9800000  -1860600.000    298.150
 OXIDANT     N2O                          1.0000000     81849.014    293.000

 O/F=    6.00000  %FUEL= 14.285714  R,EQ.RATIO= 1.517056  PHI,EQ.RATIO= 1.517056

                 CHAMBER   THROAT     EXIT     EXIT     EXIT     EXIT
 Pinf/P            1.0000   1.7682   20.000   25.000   30.000   35.000
 P, BAR            54.000   30.539   2.7000   2.1600   1.8000   1.5429
 T, K             3286.54  3028.39  1945.87  1859.73  1791.83  1736.14
 RHO, KG/CU M    5.0361 0 3.1143 0 4.3252-1 3.6206-1 3.1316-1 2.7704-1
 H, KJ/KG         1333.97   749.05 -1181.60 -1317.79 -1424.56 -1511.78
 U, KJ/KG          261.70  -231.56 -1805.85 -1914.37 -1999.35 -2068.70
 G, KJ/KG        -31270.7 -29294.6 -20485.9 -19767.6 -19200.7 -18735.5
 S, KJ/(KG)(K)     9.9207   9.9207   9.9207   9.9207   9.9207   9.9207

 M, (1/n)          25.484   25.677   25.918   25.919   25.920   25.920
 (dLV/dLP)t      -1.00908 -1.00506 -1.00006 -1.00003 -1.00002 -1.00001
 (dLV/dLT)p        1.1777   1.1069   1.0017   1.0010   1.0006   1.0004
 Cp, KJ/(KG)(K)    2.7985   2.3781   1.5892   1.5775   1.5699   1.5645
 GAMMAs            1.1801   1.1930   1.2539   1.2558   1.2572   1.2582
 SON VEL,M/SEC     1124.9   1081.6    884.7    865.6    850.1    837.1
 MACH NUMBER        0.000    1.000    2.535    2.661    2.763    2.850

 PERFORMANCE PARAMETERS

 Ae/At                      1.0000   3.4720   4.0397   4.5793   5.0964
 CSTAR, M/SEC               1603.2   1603.2   1603.2   1603.2   1603.2
 CF                         0.6747   1.3991   1.4365   1.4651   1.4881
 Ivac, M/SEC                1988.2   2521.3   2562.0   2593.6   2619.1
 Isp, M/SEC                 1081.6   2243.0   2302.9   2348.8   2385.7

 MASS FRACTIONS

 *CO              0.22408  0.21870  0.20095  0.19868  0.19667  0.19486
 *CO2             0.10736  0.11582  0.14372  0.14729  0.15044  0.15329
 COOH             0.00001  0.00000  0.00000  0.00000  0.00000  0.00000
 *H               0.00047  0.00030  0.00001  0.00000  0.00000  0.00000
 HCO              0.00001  0.00000  0.00000  0.00000  0.00000  0.00000
 HO2              0.00001  0.00000  0.00000  0.00000  0.00000  0.00000
 *H2              0.00482  0.00480  0.00583  0.00600  0.00614  0.00627
 H2O              0.10434  0.10795  0.10391  0.10246  0.10118  0.10002
 *NO              0.00475  0.00224  0.00000  0.00000  0.00000  0.00000
 *N2              0.54333  0.54450  0.54555  0.54556  0.54556  0.54556
 *O               0.00084  0.00031  0.00000  0.00000  0.00000  0.00000
 *OH              0.00838  0.00472  0.00002  0.00001  0.00001  0.00000
 *O2              0.00159  0.00062  0.00000  0.00000  0.00000  0.00000

  * THERMODYNAMIC PROPERTIES FITTED TO 20000.K

 NOTE. WEIGHT FRACTION OF FUEL IN TOTAL FUELS AND OF OXIDANT IN TOTAL OXIDANTS

              THEORETICAL ROCKET PERFORMANCE ASSUMING EQUILIBRIUM

           COMPOSITION DURING EXPANSION FROM INFINITE AREA COMBUSTOR

 Pin =   812.2 PSIA
 CASE = AESIR__________

             REACTANT                    WT FRACTION      ENERGY      TEMP
                                          (SEE NOTE)     KJ/KG-MOL      K  
 FUEL        C                            0.0200000         0.000      0.000
 FUEL        paraffin                     0.9800000  -1860600.000    298.150
 OXIDANT     N2O                          1.0000000     81849.014    293.000

 O/F=    6.00000  %FUEL= 14.285714  R,EQ.RATIO= 1.517056  PHI,EQ.RATIO= 1.517056

                 CHAMBER   THROAT     EXIT     EXIT     EXIT     EXIT
 Pinf/P            1.0000   1.7686   20.000   25.000   30.000   35.000
 P, BAR            56.000   31.664   2.8000   2.2400   1.8667   1.6000
 T, K             3289.01  3029.79  1945.65  1859.51  1791.61  1735.93
 RHO, KG/CU M    5.2197 0 3.2280 0 4.4859-1 3.7552-1 3.2480-1 2.8733-1
 H, KJ/KG         1333.97   748.61 -1181.99 -1318.16 -1424.92 -1512.13
 U, KJ/KG          261.11  -232.33 -1806.16 -1914.67 -1999.63 -2068.97
 G, KJ/KG        -31256.2 -29273.0 -20461.1 -19743.7 -19177.6 -18713.1
 S, KJ/(KG)(K)     9.9088   9.9088   9.9088   9.9088   9.9088   9.9088

 M, (1/n)          25.489   25.681   25.918   25.919   25.920   25.920
 (dLV/dLP)t      -1.00898 -1.00498 -1.00006 -1.00003 -1.00002 -1.00001
 (dLV/dLT)p        1.1755   1.1053   1.0016   1.0010   1.0006   1.0004
 Cp, KJ/(KG)(K)    2.7840   2.3669   1.5888   1.5773   1.5698   1.5644
 GAMMAs            1.1805   1.1935   1.2539   1.2559   1.2572   1.2582
 SON VEL,M/SEC     1125.4   1082.0    884.7    865.5    850.0    837.0
 MACH NUMBER        0.000    1.000    2.536    2.661    2.763    2.850

 PERFORMANCE PARAMETERS

 Ae/At                      1.0000   3.4709   4.0384   4.5778   5.0948
 CSTAR, M/SEC               1603.4   1603.4   1603.4   1603.4   1603.4
 CF                         0.6748   1.3991   1.4364   1.4650   1.4880
 Ivac, M/SEC                1988.6   2521.4   2562.1   2593.7   2619.2
 Isp, M/SEC                 1082.0   2243.2   2303.1   2349.0   2385.8

 MASS FRACTIONS

 *CO              0.22402  0.21867  0.20095  0.19867  0.19667  0.19485
 *CO2             0.10745  0.11587  0.14373  0.14730  0.15045  0.15330
 COOH             0.00001  0.00000  0.00000  0.00000  0.00000  0.00000
 *H               0.00046  0.00030  0.00001  0.00000  0.00000  0.00000
 HCO              0.00001  0.00000  0.00000  0.00000  0.00000  0.00000
 HO2              0.00001  0.00000  0.00000  0.00000  0.00000  0.00000
 *H2              0.00482  0.00480  0.00583  0.00600  0.00614  0.00627
 H2O              0.10446  0.10803  0.10391  0.10246  0.10117  0.10001
 *NO              0.00471  0.00222  0.00000  0.00000  0.00000  0.00000
 *N2              0.54334  0.54451  0.54555  0.54556  0.54556  0.54556
 *O               0.00083  0.00031  0.00000  0.00000  0.00000  0.00000
 *OH              0.00830  0.00467  0.00002  0.00001  0.00001  0.00000
 *O2              0.00156  0.00061  0.00000  0.00000  0.00000  0.00000

  * THERMODYNAMIC PROPERTIES FITTED TO 20000.K

 NOTE. WEIGHT FRACTION OF FUEL IN TOTAL FUELS AND OF OXIDANT IN TOTAL OXIDANTS

              THEORETICAL ROCKET PERFORMANCE ASSUMING EQUILIBRIUM

           COMPOSITION DURING EXPANSION FROM INFINITE AREA COMBUSTOR

 Pin =   841.2 PSIA
 CASE = AESIR__________

             REACTANT                    WT FRACTION      ENERGY      TEMP
                                          (SEE NOTE)     KJ/KG-MOL      K  
 FUEL        C                            0.0200000         0.000      0.000
 FUEL        paraffin                     0.9800000  -1860600.000    298.150
 OXIDANT     N2O                          1.0000000     81849.014    293.000

 O/F=    6.00000  %FUEL= 14.285714  R,EQ.RATIO= 1.517056  PHI,EQ.RATIO= 1.517056

                 CHAMBER   THROAT     EXIT     EXIT     EXIT     EXIT
 Pinf/P            1.0000   1.7689   20.000   25.000   30.000   35.000
 P, BAR            58.000   32.789   2.9000   2.3200   1.9333   1.6571
 T, K             3291.37  3031.12  1945.44  1859.30  1791.40  1735.72
 RHO, KG/CU M    5.4032 0 3.3416 0 4.6467-1 3.8897-1 3.3644-1 2.9763-1
 H, KJ/KG         1333.97   748.18 -1182.35 -1318.51 -1425.26 -1512.45
 U, KJ/KG          260.54  -233.07 -1806.46 -1914.95 -1999.90 -2069.23
 G, KJ/KG        -31241.9 -29251.9 -20437.1 -19720.7 -19155.4 -18691.5
 S, KJ/(KG)(K)     9.8974   9.8974   9.8974   9.8974   9.8974   9.8974

 M, (1/n)          25.494   25.684   25.918   25.919   25.920   25.920
 (dLV/dLP)t      -1.00887 -1.00491 -1.00006 -1.00003 -1.00002 -1.00001
 (dLV/dLT)p        1.1735   1.1038   1.0016   1.0009   1.0006   1.0004
 Cp, KJ/(KG)(K)    2.7702   2.3562   1.5885   1.5771   1.5696   1.5643
 GAMMAs            1.1810   1.1940   1.2540   1.2559   1.2572   1.2582
 SON VEL,M/SEC     1125.9   1082.4    884.7    865.5    850.0    837.0
 MACH NUMBER        0.000    1.000    2.536    2.661    2.764    2.851

 PERFORMANCE PARAMETERS

 Ae/At                      1.0000   3.4698   4.0372   4.5765   5.0933
 CSTAR, M/SEC               1603.6   1603.6   1603.6   1603.6   1603.6
 CF                         0.6750   1.3990   1.4363   1.4650   1.4879
 Ivac, M/SEC                1988.9   2521.6   2562.2   2593.8   2619.3
 Isp, M/SEC                 1082.4   2243.4   2303.3   2349.1   2386.0

 MASS FRACTIONS

 *CO              0.22396  0.21863  0.20094  0.19867  0.19666  0.19485
 *CO2             0.10754  0.11592  0.14374  0.14731  0.15046  0.15331
 COOH             0.00001  0.00000  0.00000  0.00000  0.00000  0.00000
 *H               0.00046  0.00029  0.00001  0.00000  0.00000  0.00000
 HCO              0.00001  0.00000  0.00000  0.00000  0.00000  0.00000
 HO2              0.00001  0.00000  0.00000  0.00000  0.00000  0.00000
 *H2              0.00482  0.00480  0.00583  0.00600  0.00614  0.00627
 H2O              0.10457  0.10810  0.10390  0.10246  0.10117  0.10001
 *NO              0.00468  0.00220  0.00000  0.00000  0.00000  0.00000
 *N2              0.54336  0.54453  0.54555  0.54556  0.54556  0.54556
 *O               0.00081  0.00030  0.00000  0.00000  0.00000  0.00000
 *OH              0.00823  0.00461  0.00002  0.00001  0.00001  0.00000
 *O2              0.00153  0.00059  0.00000  0.00000  0.00000  0.00000

  * THERMODYNAMIC PROPERTIES FITTED TO 20000.K

 NOTE. WEIGHT FRACTION OF FUEL IN TOTAL FUELS AND OF OXIDANT IN TOTAL OXIDANTS

              THEORETICAL ROCKET PERFORMANCE ASSUMING EQUILIBRIUM

           COMPOSITION DURING EXPANSION FROM INFINITE AREA COMBUSTOR

 Pin =   870.2 PSIA
 CASE = AESIR__________

             REACTANT                    WT FRACTION      ENERGY      TEMP
                                          (SEE NOTE)     KJ/KG-MOL      K  
 FUEL        C                            0.0200000         0.000      0.000
 FUEL        paraffin                     0.9800000  -1860600.000    298.150
 OXIDANT     N2O                          1.0000000     81849.014    293.000

 O/F=    6.00000  %FUEL= 14.285714  R,EQ.RATIO= 1.517056  PHI,EQ.RATIO= 1.517056

                 CHAMBER   THROAT     EXIT     EXIT     EXIT     EXIT
 Pinf/P            1.0000   1.7692   20.000   25.000   30.000   35.000
 P, BAR            60.000   33.914   3.0000   2.4000   2.0000   1.7143
 T, K             3293.65  3032.40  1945.24  1859.10  1791.20  1735.53
 RHO, KG/CU M    5.5867 0 3.4552 0 4.8074-1 4.0243-1 3.4808-1 3.0793-1
 H, KJ/KG         1333.97   747.77 -1182.70 -1318.84 -1425.58 -1512.77
 U, KJ/KG          259.99  -233.77 -1806.74 -1915.22 -2000.16 -2069.48
 G, KJ/KG        -31228.0 -29231.4 -20414.0 -19698.5 -19133.9 -18670.7
 S, KJ/(KG)(K)     9.8863   9.8863   9.8863   9.8863   9.8863   9.8863

 M, (1/n)          25.499   25.687   25.918   25.919   25.920   25.920
 (dLV/dLP)t      -1.00878 -1.00485 -1.00005 -1.00003 -1.00002 -1.00001
 (dLV/dLT)p        1.1715   1.1023   1.0016   1.0009   1.0006   1.0004
 Cp, KJ/(KG)(K)    2.7569   2.3460   1.5883   1.5769   1.5695   1.5642
 GAMMAs            1.1814   1.1945   1.2540   1.2559   1.2572   1.2582
 SON VEL,M/SEC     1126.4   1082.8    884.6    865.4    849.9    836.9
 MACH NUMBER        0.000    1.000    2.536    2.662    2.764    2.851

 PERFORMANCE PARAMETERS

 Ae/At                      1.0000   3.4688   4.0361   4.5751   5.0919
 CSTAR, M/SEC               1603.7   1603.7   1603.7   1603.7   1603.7
 CF                         0.6752   1.3989   1.4363   1.4649   1.4878
 Ivac, M/SEC                1989.3   2521.7   2562.3   2593.9   2619.4
 Isp, M/SEC                 1082.8   2243.5   2303.4   2349.3   2386.1

 MASS FRACTIONS

 *CO              0.22390  0.21860  0.20094  0.19866  0.19665  0.19484
 *CO2             0.10763  0.11597  0.14374  0.14731  0.15047  0.15332
 COOH             0.00001  0.00000  0.00000  0.00000  0.00000  0.00000
 *H               0.00045  0.00029  0.00001  0.00000  0.00000  0.00000
 HCO              0.00001  0.00000  0.00000  0.00000  0.00000  0.00000
 HO2              0.00001  0.00000  0.00000  0.00000  0.00000  0.00000
 *H2              0.00481  0.00480  0.00583  0.00600  0.00614  0.00627
 H2O              0.10468  0.10817  0.10390  0.10245  0.10117  0.10000
 *NO              0.00465  0.00217  0.00000  0.00000  0.00000  0.00000
 *N2              0.54337  0.54454  0.54555  0.54556  0.54556  0.54556
 *O               0.00079  0.00029  0.00000  0.00000  0.00000  0.00000
 *OH              0.00816  0.00456  0.00002  0.00001  0.00001  0.00000
 *O2              0.00150  0.00058  0.00000  0.00000  0.00000  0.00000

  * THERMODYNAMIC PROPERTIES FITTED TO 20000.K

 NOTE. WEIGHT FRACTION OF FUEL IN TOTAL FUELS AND OF OXIDANT IN TOTAL OXIDANTS

              THEORETICAL ROCKET PERFORMANCE ASSUMING EQUILIBRIUM

           COMPOSITION DURING EXPANSION FROM INFINITE AREA COMBUSTOR

 Pin =   290.1 PSIA
 CASE = AESIR__________

             REACTANT                    WT FRACTION      ENERGY      TEMP
                                          (SEE NOTE)     KJ/KG-MOL      K  
 FUEL        C                            0.0200000         0.000      0.000
 FUEL        paraffin                     0.9800000  -1860600.000    298.150
 OXIDANT     N2O                          1.0000000     81849.014    293.000

 O/F=    6.20000  %FUEL= 13.888889  R,EQ.RATIO= 1.468119  PHI,EQ.RATIO= 1.468119

                 CHAMBER   THROAT     EXIT     EXIT     EXIT     EXIT
 Pinf/P            1.0000   1.7544   20.000   25.000   30.000   35.000
 P, BAR            20.000   11.400   1.0000  0.80000  0.66667  0.57143
 T, K             3235.41  3015.97  2003.71  1916.53  1847.53  1790.82
 RHO, KG/CU M    1.8990 0 1.1727 0 1.5734-1 1.3161-1 1.1378-1 1.0062-1
 H, KJ/KG         1348.58   779.49 -1170.76 -1309.47 -1418.28 -1507.21
 U, KJ/KG          295.37  -192.59 -1806.32 -1917.31 -2004.21 -2075.13
 G, KJ/KG        -31664.0 -29994.1 -21615.7 -20864.8 -20269.6 -19779.9
 S, KJ/(KG)(K)    10.2035  10.2035  10.2035  10.2035  10.2035  10.2035

 M, (1/n)          25.542   25.797   26.213   26.216   26.217   26.218
 (dLV/dLP)t      -1.01395 -1.00892 -1.00014 -1.00008 -1.00005 -1.00003
 (dLV/dLT)p        1.2757   1.1895   1.0040   1.0024   1.0016   1.0011
 Cp, KJ/(KG)(K)    3.4383   2.9452   1.6064   1.5865   1.5743   1.5660
 GAMMAs            1.1630   1.1709   1.2483   1.2512   1.2532   1.2546
 SON VEL,M/SEC     1106.7   1066.9    890.7    872.1    856.9    844.1
 MACH NUMBER        0.000    1.000    2.520    2.644    2.745    2.831

 PERFORMANCE PARAMETERS

 Ae/At                     1.00000   3.5424   4.1229   4.6744   5.2029
 CSTAR, M/SEC               1598.6   1598.6   1598.6   1598.6   1598.6
 CF                         0.6674   1.4042   1.4423   1.4716   1.4950
 Ivac, M/SEC                1978.0   2527.8   2569.3   2601.5   2627.5
 Isp, M/SEC                 1066.9   2244.7   2305.7   2352.4   2389.9

 MASS FRACTIONS

 *CO              0.21339  0.20641  0.18693  0.18489  0.18309  0.18145
 *CO2             0.11141  0.12237  0.15299  0.15619  0.15903  0.16159
 *H               0.00064  0.00045  0.00002  0.00001  0.00001  0.00000
 HO2              0.00001  0.00000  0.00000  0.00000  0.00000  0.00000
 *H2              0.00433  0.00423  0.00500  0.00515  0.00528  0.00540
 H2O              0.10101  0.10592  0.10690  0.10564  0.10450  0.10345
 *NO              0.00689  0.00387  0.00001  0.00000  0.00000  0.00000
 *N2              0.54485  0.54627  0.54808  0.54808  0.54808  0.54808
 *O               0.00182  0.00086  0.00000  0.00000  0.00000  0.00000
 *OH              0.01191  0.00770  0.00008  0.00004  0.00002  0.00001
 *O2              0.00371  0.00191  0.00000  0.00000  0.00000  0.00000

  * THERMODYNAMIC PROPERTIES FITTED TO 20000.K

 NOTE. WEIGHT FRACTION OF FUEL IN TOTAL FUELS AND OF OXIDANT IN TOTAL OXIDANTS

              THEORETICAL ROCKET PERFORMANCE ASSUMING EQUILIBRIUM

           COMPOSITION DURING EXPANSION FROM INFINITE AREA COMBUSTOR

 Pin =   319.1 PSIA
 CASE = AESIR__________

             REACTANT                    WT FRACTION      ENERGY      TEMP
                                          (SEE NOTE)     KJ/KG-MOL      K  
 FUEL        C                            0.0200000         0.000      0.000
 FUEL        paraffin                     0.9800000  -1860600.000    298.150
 OXIDANT     N2O                          1.0000000     81849.014    293.000

 O/F=    6.20000  %FUEL= 13.888889  R,EQ.RATIO= 1.468119  PHI,EQ.RATIO= 1.468119

                 CHAMBER   THROAT     EXIT     EXIT     EXIT     EXIT
 Pinf/P            1.0000   1.7552   20.000   25.000   30.000   35.000
 P, BAR            22.000   12.534   1.1000  0.88000  0.73333  0.62857
 T, K             3243.42  3021.39  2002.88  1915.66  1846.66  1789.95
 RHO, KG/CU M    2.0850 0 1.2877 0 1.7315-1 1.4484-1 1.2522-1 1.1073-1
 H, KJ/KG         1348.58   778.13 -1172.33 -1310.98 -1419.74 -1508.63
 U, KJ/KG          293.44  -195.22 -1807.62 -1918.54 -2005.39 -2076.27
 G, KJ/KG        -31645.1 -29957.0 -21546.6 -20798.1 -20204.9 -19716.9
 S, KJ/(KG)(K)    10.1725  10.1725  10.1725  10.1725  10.1725  10.1725

 M, (1/n)          25.558   25.809   26.213   26.216   26.217   26.218
 (dLV/dLP)t      -1.01361 -1.00864 -1.00013 -1.00008 -1.00005 -1.00003
 (dLV/dLT)p        1.2687   1.1834   1.0038   1.0023   1.0015   1.0010
 Cp, KJ/(KG)(K)    3.3894   2.9014   1.6044   1.5853   1.5734   1.5654
 GAMMAs            1.1640   1.1721   1.2485   1.2514   1.2533   1.2546
 SON VEL,M/SEC     1108.2   1068.1    890.6    872.0    856.7    843.9
 MACH NUMBER        0.000    1.000    2.521    2.645    2.746    2.833

 PERFORMANCE PARAMETERS

 Ae/At                     1.00000   3.5378   4.1176   4.6683   5.1962
 CSTAR, M/SEC               1599.5   1599.5   1599.5   1599.5   1599.5
 CF                         0.6678   1.4039   1.4419   1.4711   1.4946
 Ivac, M/SEC                1979.4   2528.3   2569.8   2601.9   2627.9
 Isp, M/SEC                 1068.1   2245.4   2306.3   2353.0   2390.5

 MASS FRACTIONS

 *CO              0.21316  0.20625  0.18691  0.18487  0.18306  0.18143
 *CO2             0.11175  0.12262  0.15301  0.15622  0.15906  0.16163
 *H               0.00062  0.00043  0.00002  0.00001  0.00001  0.00000
 HO2              0.00001  0.00000  0.00000  0.00000  0.00000  0.00000
 *H2              0.00432  0.00422  0.00500  0.00515  0.00528  0.00540
 H2O              0.10137  0.10621  0.10690  0.10563  0.10448  0.10344
 *NO              0.00682  0.00380  0.00001  0.00000  0.00000  0.00000
 *N2              0.54489  0.54630  0.54808  0.54808  0.54808  0.54808
 *O               0.00175  0.00082  0.00000  0.00000  0.00000  0.00000
 *OH              0.01171  0.00752  0.00007  0.00004  0.00002  0.00001
 *O2              0.00357  0.00181  0.00000  0.00000  0.00000  0.00000

  * THERMODYNAMIC PROPERTIES FITTED TO 20000.K

 NOTE. WEIGHT FRACTION OF FUEL IN TOTAL FUELS AND OF OXIDANT IN TOTAL OXIDANTS

              THEORETICAL ROCKET PERFORMANCE ASSUMING EQUILIBRIUM

           COMPOSITION DURING EXPANSION FROM INFINITE AREA COMBUSTOR

 Pin =   348.1 PSIA
 CASE = AESIR__________

             REACTANT                    WT FRACTION      ENERGY      TEMP
                                          (SEE NOTE)     KJ/KG-MOL      K  
 FUEL        C                            0.0200000         0.000      0.000
 FUEL        paraffin                     0.9800000  -1860600.000    298.150
 OXIDANT     N2O                          1.0000000     81849.014    293.000

 O/F=    6.20000  %FUEL= 13.888889  R,EQ.RATIO= 1.468119  PHI,EQ.RATIO= 1.468119

                 CHAMBER   THROAT     EXIT     EXIT     EXIT     EXIT
 Pinf/P            1.0000   1.7559   20.000   25.000   30.000   35.000
 P, BAR            24.000   13.668   1.2000  0.96000  0.80000  0.68571
 T, K             3250.67  3026.25  2002.14  1914.89  1845.88  1789.18
 RHO, KG/CU M    2.2708 0 1.4026 0 1.8896-1 1.5807-1 1.3666-1 1.2085-1
 H, KJ/KG         1348.58   776.89 -1173.73 -1312.32 -1421.04 -1509.89
 U, KJ/KG          291.69  -197.58 -1808.78 -1919.63 -2006.44 -2077.28
 G, KJ/KG        -31626.9 -29922.0 -21483.8 -20737.3 -20146.0 -19659.7
 S, KJ/(KG)(K)    10.1442  10.1442  10.1442  10.1442  10.1442  10.1442

 M, (1/n)          25.573   25.821   26.213   26.216   26.218   26.218
 (dLV/dLP)t      -1.01331 -1.00839 -1.00013 -1.00007 -1.00005 -1.00003
 (dLV/dLT)p        1.2624   1.1780   1.0036   1.0022   1.0014   1.0010
 Cp, KJ/(KG)(K)    3.3454   2.8623   1.6027   1.5842   1.5727   1.5648
 GAMMAs            1.1649   1.1733   1.2488   1.2516   1.2534   1.2547
 SON VEL,M/SEC     1109.6   1069.3    890.5    871.8    856.6    843.8
 MACH NUMBER        0.000    1.000    2.522    2.646    2.748    2.834

 PERFORMANCE PARAMETERS

 Ae/At                      1.0000   3.5337   4.1128   4.6629   5.1902
 CSTAR, M/SEC               1600.3   1600.3   1600.3   1600.3   1600.3
 CF                         0.6682   1.4035   1.4416   1.4707   1.4941
 Ivac, M/SEC                1980.6   2528.8   2570.2   2602.3   2628.3
 Isp, M/SEC                 1069.3   2246.0   2306.9   2353.6   2391.0

 MASS FRACTIONS

 *CO              0.21296  0.20610  0.18690  0.18485  0.18304  0.18140
 *CO2             0.11207  0.12286  0.15304  0.15625  0.15910  0.16167
 *H               0.00061  0.00042  0.00001  0.00001  0.00001  0.00000
 HO2              0.00001  0.00000  0.00000  0.00000  0.00000  0.00000
 *H2              0.00431  0.00421  0.00500  0.00515  0.00528  0.00540
 H2O              0.10169  0.10646  0.10689  0.10562  0.10447  0.10343
 *NO              0.00675  0.00373  0.00001  0.00000  0.00000  0.00000
 *N2              0.54492  0.54633  0.54808  0.54808  0.54808  0.54808
 *O               0.00168  0.00077  0.00000  0.00000  0.00000  0.00000
 *OH              0.01152  0.00735  0.00007  0.00003  0.00002  0.00001
 *O2              0.00345  0.00173  0.00000  0.00000  0.00000  0.00000

  * THERMODYNAMIC PROPERTIES FITTED TO 20000.K

 NOTE. WEIGHT FRACTION OF FUEL IN TOTAL FUELS AND OF OXIDANT IN TOTAL OXIDANTS

              THEORETICAL ROCKET PERFORMANCE ASSUMING EQUILIBRIUM

           COMPOSITION DURING EXPANSION FROM INFINITE AREA COMBUSTOR

 Pin =   377.1 PSIA
 CASE = AESIR__________

             REACTANT                    WT FRACTION      ENERGY      TEMP
                                          (SEE NOTE)     KJ/KG-MOL      K  
 FUEL        C                            0.0200000         0.000      0.000
 FUEL        paraffin                     0.9800000  -1860600.000    298.150
 OXIDANT     N2O                          1.0000000     81849.014    293.000

 O/F=    6.20000  %FUEL= 13.888889  R,EQ.RATIO= 1.468119  PHI,EQ.RATIO= 1.468119

                 CHAMBER   THROAT     EXIT     EXIT     EXIT     EXIT
 Pinf/P            1.0000   1.7566   20.000   25.000   30.000   35.000
 P, BAR            26.000   14.801   1.3000   1.0400  0.86667  0.74286
 T, K             3257.27  3030.65  2001.46  1914.19  1845.18  1788.48
 RHO, KG/CU M    2.4564 0 1.5173 0 2.0478-1 1.7131-1 1.4811-1 1.3098-1
 H, KJ/KG         1348.58   775.76 -1174.99 -1313.53 -1422.21 -1511.02
 U, KJ/KG          290.10  -199.73 -1809.82 -1920.62 -2007.38 -2078.19
 G, KJ/KG        -31609.1 -29888.9 -21426.2 -20681.7 -20092.1 -19607.2
 S, KJ/(KG)(K)    10.1182  10.1182  10.1182  10.1182  10.1182  10.1182

 M, (1/n)          25.587   25.831   26.214   26.216   26.218   26.218
 (dLV/dLP)t      -1.01303 -1.00816 -1.00012 -1.00007 -1.00004 -1.00003
 (dLV/dLT)p        1.2567   1.1731   1.0034   1.0021   1.0013   1.0009
 Cp, KJ/(KG)(K)    3.3056   2.8270   1.6012   1.5832   1.5720   1.5644
 GAMMAs            1.1658   1.1744   1.2490   1.2517   1.2535   1.2548
 SON VEL,M/SEC     1110.8   1070.3    890.4    871.7    856.5    843.6
 MACH NUMBER        0.000    1.000    2.523    2.647    2.749    2.835

 PERFORMANCE PARAMETERS

 Ae/At                      1.0000   3.5301   4.1085   4.6580   5.1848
 CSTAR, M/SEC               1601.0   1601.0   1601.0   1601.0   1601.0
 CF                         0.6686   1.4033   1.4413   1.4704   1.4938
 Ivac, M/SEC                1981.7   2529.2   2570.5   2602.6   2628.6
 Isp, M/SEC                 1070.3   2246.6   2307.4   2354.1   2391.5

 MASS FRACTIONS

 *CO              0.21278  0.20597  0.18688  0.18484  0.18302  0.18138
 *CO2             0.11236  0.12307  0.15306  0.15627  0.15913  0.16170
 *H               0.00059  0.00041  0.00001  0.00001  0.00001  0.00000
[...]
 Pinf/P            1.0000   1.7382   20.000   25.000   30.000   35.000
 P, BAR            50.000   28.766   2.5000   2.0000   1.6667   1.4286
 T, K             3325.70  3133.78  2368.40  2297.56  2238.70  2188.20
 RHO, KG/CU M    5.0547 0 3.1213 0 3.7298-1 3.0822-1 2.6399-1 2.3174-1
 H, KJ/KG         1531.11  1003.21  -930.45 -1077.63 -1194.34 -1290.51
 U, KJ/KG          541.93   81.613 -1600.73 -1726.52 -1825.68 -1906.97
 G, KJ/KG        -29506.4 -28243.1 -23033.8 -22519.9 -22087.2 -21712.1
 S, KJ/(KG)(K)     9.3326   9.3326   9.3326   9.3326   9.3326   9.3326

 M, (1/n)          27.954   28.272   29.379   29.440   29.483   29.514
 (dLV/dLP)t      -1.01880 -1.01591 -1.00364 -1.00280 -1.00219 -1.00174
 (dLV/dLT)p        1.3689   1.3334   1.1026   1.0814   1.0655   1.0534
 Cp, KJ/(KG)(K)    3.7691   3.6559   2.3484   2.1906   2.0672   1.9690
 GAMMAs            1.1482   1.1456   1.1667   1.1737   1.1802   1.1863
 SON VEL,M/SEC     1065.7   1027.5    884.3    872.7    863.2    855.1
 MACH NUMBER        0.000    1.000    2.509    2.617    2.705    2.778

 PERFORMANCE PARAMETERS

 Ae/At                      1.0000   3.8754   4.5555   5.2037   5.8259
 CSTAR, M/SEC               1559.0   1559.0   1559.0   1559.0   1559.0
 CF                         0.6591   1.4232   1.4652   1.4976   1.5238
 Ivac, M/SEC                1924.4   2520.9   2568.3   2605.1   2635.0
 Isp, M/SEC                 1027.5   2218.8   2284.2   2334.7   2375.6

 MASS FRACTIONS

 *CO              0.07075  0.05801  0.01043  0.00777  0.00592  0.00459
 *CO2             0.17598  0.19602  0.27077  0.27496  0.27786  0.27995
 *H               0.00020  0.00014  0.00001  0.00001  0.00001  0.00000
 HNO              0.00001  0.00001  0.00000  0.00000  0.00000  0.00000
 HNO2             0.00001  0.00000  0.00000  0.00000  0.00000  0.00000
 HO2              0.00008  0.00005  0.00000  0.00000  0.00000  0.00000
 *H2              0.00070  0.00056  0.00011  0.00008  0.00007  0.00005
 H2O              0.07955  0.08317  0.09447  0.09510  0.09555  0.09589
 H2O2             0.00001  0.00000  0.00000  0.00000  0.00000  0.00000
 *NO              0.02916  0.02334  0.00647  0.00555  0.00486  0.00432
 NO2              0.00007  0.00005  0.00001  0.00001  0.00000  0.00000
 *N2              0.56600  0.56873  0.57663  0.57706  0.57739  0.57764
 N2O              0.00002  0.00001  0.00000  0.00000  0.00000  0.00000
 *O               0.00542  0.00392  0.00046  0.00034  0.00026  0.00020
 *OH              0.01878  0.01526  0.00377  0.00309  0.00259  0.00220
 *O2              0.05326  0.05072  0.03686  0.03604  0.03550  0.03515

  * THERMODYNAMIC PROPERTIES FITTED TO 20000.K

 NOTE. WEIGHT FRACTION OF FUEL IN TOTAL FUELS AND OF OXIDANT IN TOTAL OXIDANTS

              THEORETICAL ROCKET PERFORMANCE ASSUMING EQUILIBRIUM

           COMPOSITION DURING EXPANSION FROM INFINITE AREA COMBUSTOR

 Pin =   754.2 PSIA
 CASE = AESIR__________

             REACTANT                    WT FRACTION      ENERGY      TEMP
                                          (SEE NOTE)     KJ/KG-MOL      K  
 FUEL        C                            0.0200000         0.000      0.000
 FUEL        paraffin                     0.9800000  -1860600.000    298.150
 OXIDANT     N2O                          1.0000000     81849.014    293.000

 O/F=   10.20000  %FUEL=  8.928571  R,EQ.RATIO= 0.892386  PHI,EQ.RATIO= 0.892386

                 CHAMBER   THROAT     EXIT     EXIT     EXIT     EXIT
 Pinf/P            1.0000   1.7383   20.000   25.000   30.000   35.000
 P, BAR            52.000   29.914   2.6000   2.0800   1.7333   1.4857
 T, K             3329.50  3136.93  2368.97  2297.89  2238.83  2188.16
 RHO, KG/CU M    5.2526 0 3.2436 0 3.8785-1 3.2054-1 2.7455-1 2.4103-1
 H, KJ/KG         1531.11  1002.72  -931.79 -1078.98 -1195.69 -1291.86
 U, KJ/KG          541.12   80.462 -1602.15 -1727.89 -1827.02 -1908.26
 G, KJ/KG        -29503.0 -28236.4 -23012.8 -22497.5 -22063.7 -21687.6
 S, KJ/(KG)(K)     9.3209   9.3209   9.3209   9.3209   9.3209   9.3209

 M, (1/n)          27.963   28.280   29.383   29.443   29.485   29.516
 (dLV/dLP)t      -1.01870 -1.01583 -1.00359 -1.00275 -1.00215 -1.00171
 (dLV/dLT)p        1.3668   1.3313   1.1013   1.0802   1.0645   1.0525
 Cp, KJ/(KG)(K)    3.7543   3.6412   2.3374   2.1808   2.0584   1.9612
 GAMMAs            1.1484   1.1458   1.1672   1.1742   1.1808   1.1868
 SON VEL,M/SEC     1066.3   1028.0    884.6    872.9    863.4    855.3
 MACH NUMBER        0.000    1.000    2.509    2.617    2.705    2.778

 PERFORMANCE PARAMETERS

 Ae/At                      1.0000   3.8735   4.5529   5.2005   5.8220
 CSTAR, M/SEC               1559.5   1559.5   1559.5   1559.5   1559.5
 CF                         0.6592   1.4231   1.4650   1.4974   1.5236
 Ivac, M/SEC                1925.1   2521.5   2568.8   2605.6   2635.5
 Isp, M/SEC                 1028.0   2219.4   2284.8   2335.3   2376.1

 MASS FRACTIONS

 *CO              0.07045  0.05771  0.01028  0.00764  0.00581  0.00450
 *CO2             0.17646  0.19648  0.27100  0.27515  0.27803  0.28008
 *H               0.00019  0.00014  0.00001  0.00001  0.00001  0.00000
 HNO              0.00001  0.00001  0.00000  0.00000  0.00000  0.00000
 HNO2             0.00001  0.00000  0.00000  0.00000  0.00000  0.00000
 HO2              0.00008  0.00005  0.00000  0.00000  0.00000  0.00000
 *H2              0.00070  0.00056  0.00011  0.00008  0.00006  0.00005
 H2O              0.07965  0.08326  0.09451  0.09513  0.09557  0.09591
 H2O2             0.00001  0.00000  0.00000  0.00000  0.00000  0.00000
 *NO              0.02922  0.02338  0.00647  0.00555  0.00485  0.00431
 NO2              0.00007  0.00005  0.00001  0.00001  0.00000  0.00000
 *N2              0.56597  0.56871  0.57663  0.57706  0.57739  0.57764
 N2O              0.00002  0.00001  0.00000  0.00000  0.00000  0.00000
 *O               0.00536  0.00388  0.00045  0.00034  0.00026  0.00020
 *OH              0.01871  0.01520  0.00374  0.00306  0.00256  0.00218
 *O2              0.05308  0.05055  0.03678  0.03597  0.03545  0.03511

  * THERMODYNAMIC PROPERTIES FITTED TO 20000.K

 NOTE. WEIGHT FRACTION OF FUEL IN TOTAL FUELS AND OF OXIDANT IN TOTAL OXIDANTS

              THEORETICAL ROCKET PERFORMANCE ASSUMING EQUILIBRIUM

           COMPOSITION DURING EXPANSION FROM INFINITE AREA COMBUSTOR

 Pin =   783.2 PSIA
 CASE = AESIR__________

             REACTANT                    WT FRACTION      ENERGY      TEMP
                                          (SEE NOTE)     KJ/KG-MOL      K  
 FUEL        C                            0.0200000         0.000      0.000
 FUEL        paraffin                     0.9800000  -1860600.000    298.150
 OXIDANT     N2O                          1.0000000     81849.014    293.000

 O/F=   10.20000  %FUEL=  8.928571  R,EQ.RATIO= 0.892386  PHI,EQ.RATIO= 0.892386

                 CHAMBER   THROAT     EXIT     EXIT     EXIT     EXIT
 Pinf/P            1.0000   1.7384   20.000   25.000   30.000   35.000
 P, BAR            54.000   31.062   2.7000   2.1600   1.8000   1.5429
 T, K             3333.15  3139.96  2369.51  2298.19  2238.94  2188.12
 RHO, KG/CU M    5.4503 0 3.3657 0 4.0272-1 3.3285-1 2.8512-1 2.5032-1
 H, KJ/KG         1531.11  1002.26  -933.07 -1080.28 -1196.98 -1293.15
 U, KJ/KG          540.33   79.357 -1603.51 -1729.21 -1828.29 -1909.50
 G, KJ/KG        -29499.6 -28229.9 -22992.6 -22475.8 -22040.9 -21664.0
 S, KJ/(KG)(K)     9.3097   9.3097   9.3097   9.3097   9.3097   9.3097

 M, (1/n)          27.972   28.288   29.386   29.446   29.487   29.518
 (dLV/dLP)t      -1.01861 -1.01574 -1.00355 -1.00272 -1.00212 -1.00168
 (dLV/dLT)p        1.3648   1.3293   1.1000   1.0791   1.0635   1.0516
 Cp, KJ/(KG)(K)    3.7402   3.6272   2.3270   2.1714   2.0500   1.9538
 GAMMAs            1.1487   1.1461   1.1677   1.1747   1.1813   1.1873
 SON VEL,M/SEC     1066.8   1028.4    884.8    873.1    863.6    855.4
 MACH NUMBER        0.000    1.000    2.509    2.618    2.705    2.778

 PERFORMANCE PARAMETERS

 Ae/At                      1.0000   3.8717   4.5505   5.1974   5.8183
 CSTAR, M/SEC               1560.0   1560.0   1560.0   1560.0   1560.0
 CF                         0.6592   1.4230   1.4649   1.4973   1.5235
 Ivac, M/SEC                1925.8   2522.0   2569.3   2606.1   2636.0
 Isp, M/SEC                 1028.4   2220.0   2285.3   2335.8   2376.7

 MASS FRACTIONS

 *CO              0.07016  0.05742  0.01014  0.00752  0.00572  0.00442
 *CO2             0.17691  0.19694  0.27122  0.27534  0.27818  0.28021
 *H               0.00019  0.00013  0.00001  0.00001  0.00001  0.00000
 HNO              0.00001  0.00001  0.00000  0.00000  0.00000  0.00000
 HNO2             0.00001  0.00000  0.00000  0.00000  0.00000  0.00000
 HO2              0.00009  0.00005  0.00000  0.00000  0.00000  0.00000
 *H2              0.00069  0.00056  0.00011  0.00008  0.00006  0.00005
 H2O              0.07974  0.08334  0.09454  0.09515  0.09560  0.09593
 H2O2             0.00001  0.00000  0.00000  0.00000  0.00000  0.00000
 *NO              0.02928  0.02342  0.00647  0.00554  0.00485  0.00431
 NO2              0.00007  0.00005  0.00001  0.00001  0.00000  0.00000
 *N2              0.56594  0.56869  0.57663  0.57706  0.57739  0.57764
 N2O              0.00002  0.00001  0.00000  0.00000  0.00000  0.00000
 *O               0.00530  0.00383  0.00045  0.00033  0.00025  0.00020
 *OH              0.01865  0.01514  0.00371  0.00303  0.00254  0.00216
 *O2              0.05292  0.05039  0.03671  0.03591  0.03540  0.03507

  * THERMODYNAMIC PROPERTIES FITTED TO 20000.K

 NOTE. WEIGHT FRACTION OF FUEL IN TOTAL FUELS AND OF OXIDANT IN TOTAL OXIDANTS

              THEORETICAL ROCKET PERFORMANCE ASSUMING EQUILIBRIUM

           COMPOSITION DURING EXPANSION FROM INFINITE AREA COMBUSTOR

 Pin =   812.2 PSIA
 CASE = AESIR__________

             REACTANT                    WT FRACTION      ENERGY      TEMP
                                          (SEE NOTE)     KJ/KG-MOL      K  
 FUEL        C                            0.0200000         0.000      0.000
 FUEL        paraffin                     0.9800000  -1860600.000    298.150
 OXIDANT     N2O                          1.0000000     81849.014    293.000

 O/F=   10.20000  %FUEL=  8.928571  R,EQ.RATIO= 0.892386  PHI,EQ.RATIO= 0.892386

                 CHAMBER   THROAT     EXIT     EXIT     EXIT     EXIT
 Pinf/P            1.0000   1.7386   20.000   25.000   30.000   35.000
 P, BAR            56.000   32.210   2.8000   2.2400   1.8667   1.6000
 T, K             3336.66  3142.87  2370.03  2298.47  2239.04  2188.08
 RHO, KG/CU M    5.6478 0 3.4878 0 4.1759-1 3.4517-1 2.9569-1 2.5961-1
 H, KJ/KG         1531.11  1001.80  -934.30 -1081.52 -1198.23 -1294.39
 U, KJ/KG          539.58   78.294 -1604.81 -1730.48 -1829.52 -1910.68
 G, KJ/KG        -29496.2 -28223.5 -22973.0 -22454.8 -22018.8 -21641.1
 S, KJ/(KG)(K)     9.2989   9.2989   9.2989   9.2989   9.2989   9.2989

 M, (1/n)          27.980   28.296   29.389   29.448   29.490   29.519
 (dLV/dLP)t      -1.01853 -1.01566 -1.00350 -1.00268 -1.00209 -1.00165
 (dLV/dLT)p        1.3628   1.3274   1.0988   1.0780   1.0626   1.0508
 Cp, KJ/(KG)(K)    3.7266   3.6137   2.3170   2.1625   2.0420   1.9467
 GAMMAs            1.1489   1.1463   1.1681   1.1752   1.1818   1.1878
 SON VEL,M/SEC     1067.3   1028.9    885.0    873.3    863.7    855.6
 MACH NUMBER        0.000    1.000    2.509    2.618    2.705    2.778

 PERFORMANCE PARAMETERS

 Ae/At                     1.00000   3.8700   4.5481   5.1944   5.8147
 CSTAR, M/SEC               1560.5   1560.5   1560.5   1560.5   1560.5
 CF                         0.6593   1.4230   1.4648   1.4972   1.5233
 Ivac, M/SEC                1926.5   2522.5   2569.8   2606.6   2636.4
 Isp, M/SEC                 1028.9   2220.5   2285.9   2336.4   2377.2

 MASS FRACTIONS

 *CO              0.06988  0.05714  0.01001  0.00741  0.00562  0.00434
 *CO2             0.17735  0.19737  0.27144  0.27551  0.27832  0.28033
 *H               0.00019  0.00013  0.00001  0.00001  0.00001  0.00000
 HNO              0.00001  0.00001  0.00000  0.00000  0.00000  0.00000
 HNO2             0.00001  0.00000  0.00000  0.00000  0.00000  0.00000
 HO2              0.00009  0.00006  0.00000  0.00000  0.00000  0.00000
 *H2              0.00069  0.00055  0.00011  0.00008  0.00006  0.00005
 H2O              0.07983  0.08342  0.09457  0.09518  0.09562  0.09595
 H2O2             0.00001  0.00000  0.00000  0.00000  0.00000  0.00000
 *NO              0.02934  0.02346  0.00647  0.00554  0.00485  0.00431
 NO2              0.00007  0.00005  0.00001  0.00001  0.00000  0.00000
 *N2              0.56591  0.56868  0.57663  0.57706  0.57739  0.57764
 N2O              0.00002  0.00001  0.00000  0.00000  0.00000  0.00000
 *O               0.00525  0.00379  0.00044  0.00032  0.00025  0.00019
 *OH              0.01859  0.01508  0.00368  0.00301  0.00252  0.00214
 *O2              0.05275  0.05023  0.03664  0.03586  0.03536  0.03503

  * THERMODYNAMIC PROPERTIES FITTED TO 20000.K

 NOTE. WEIGHT FRACTION OF FUEL IN TOTAL FUELS AND OF OXIDANT IN TOTAL OXIDANTS

              THEORETICAL ROCKET PERFORMANCE ASSUMING EQUILIBRIUM

           COMPOSITION DURING EXPANSION FROM INFINITE AREA COMBUSTOR

 Pin =   841.2 PSIA
 CASE = AESIR__________

             REACTANT                    WT FRACTION      ENERGY      TEMP
                                          (SEE NOTE)     KJ/KG-MOL      K  
 FUEL        C                            0.0200000         0.000      0.000
 FUEL        paraffin                     0.9800000  -1860600.000    298.150
 OXIDANT     N2O                          1.0000000     81849.014    293.000

 O/F=   10.20000  %FUEL=  8.928571  R,EQ.RATIO= 0.892386  PHI,EQ.RATIO= 0.892386

                 CHAMBER   THROAT     EXIT     EXIT     EXIT     EXIT
 Pinf/P            1.0000   1.7387   20.000   25.000   30.000   35.000
 P, BAR            58.000   33.358   2.9000   2.3200   1.9333   1.6571
 T, K             3340.05  3145.68  2370.52  2298.74  2239.13  2188.03
 RHO, KG/CU M    5.8453 0 3.6098 0 4.3246-1 3.5748-1 3.0626-1 2.6891-1
 H, KJ/KG         1531.11  1001.37  -935.48 -1082.71 -1199.42 -1295.57
 U, KJ/KG          538.85   77.270 -1606.06 -1731.69 -1830.69 -1911.82
 G, KJ/KG        -29492.9 -28217.3 -22954.0 -22434.5 -21997.5 -21619.0
 S, KJ/(KG)(K)     9.2885   9.2885   9.2885   9.2885   9.2885   9.2885

 M, (1/n)          27.988   28.303   29.392   29.451   29.492   29.521
 (dLV/dLP)t      -1.01844 -1.01558 -1.00346 -1.00264 -1.00206 -1.00163
 (dLV/dLT)p        1.3609   1.3256   1.0976   1.0770   1.0617   1.0500
 Cp, KJ/(KG)(K)    3.7136   3.6007   2.3074   2.1539   2.0345   1.9400
 GAMMAs            1.1491   1.1465   1.1685   1.1756   1.1822   1.1883
 SON VEL,M/SEC     1067.8   1029.3    885.2    873.5    863.9    855.7
 MACH NUMBER        0.000    1.000    2.509    2.618    2.705    2.779

 PERFORMANCE PARAMETERS

 Ae/At                      1.0000   3.8683   4.5459   5.1916   5.8113
 CSTAR, M/SEC               1561.0   1561.0   1561.0   1561.0   1561.0
 CF                         0.6594   1.4229   1.4647   1.4971   1.5232
 Ivac, M/SEC                1927.1   2523.0   2570.2   2607.0   2636.9
 Isp, M/SEC                 1029.3   2221.1   2286.4   2336.9   2377.7

 MASS FRACTIONS

 *CO              0.06961  0.05687  0.00988  0.00731  0.00553  0.00427
 *CO2             0.17778  0.19779  0.27164  0.27568  0.27846  0.28045
 *H               0.00019  0.00013  0.00001  0.00001  0.00001  0.00000
 HNO              0.00001  0.00001  0.00000  0.00000  0.00000  0.00000
 HNO2             0.00001  0.00000  0.00000  0.00000  0.00000  0.00000
 HO2              0.00009  0.00006  0.00000  0.00000  0.00000  0.00000
 *H2              0.00069  0.00055  0.00010  0.00008  0.00006  0.00005
 H2O              0.07992  0.08350  0.09460  0.09520  0.09564  0.09597
 H2O2             0.00001  0.00000  0.00000  0.00000  0.00000  0.00000
 *NO              0.02939  0.02350  0.00647  0.00554  0.00485  0.00430
 NO2              0.00008  0.00005  0.00001  0.00001  0.00000  0.00000
 *N2              0.56589  0.56866  0.57663  0.57706  0.57739  0.57764
 N2O              0.00002  0.00001  0.00000  0.00000  0.00000  0.00000
 *O               0.00520  0.00375  0.00043  0.00032  0.00024  0.00019
 *OH              0.01853  0.01503  0.00365  0.00299  0.00250  0.00212
 *O2              0.05260  0.05008  0.03657  0.03580  0.03531  0.03500

  * THERMODYNAMIC PROPERTIES FITTED TO 20000.K

 NOTE. WEIGHT FRACTION OF FUEL IN TOTAL FUELS AND OF OXIDANT IN TOTAL OXIDANTS

              THEORETICAL ROCKET PERFORMANCE ASSUMING EQUILIBRIUM

           COMPOSITION DURING EXPANSION FROM INFINITE AREA COMBUSTOR

 Pin =   870.2 PSIA
 CASE = AESIR__________

             REACTANT                    WT FRACTION      ENERGY      TEMP
                                          (SEE NOTE)     KJ/KG-MOL      K  
 FUEL        C                            0.0200000         0.000      0.000
 FUEL        paraffin                     0.9800000  -1860600.000    298.150
 OXIDANT     N2O                          1.0000000     81849.014    293.000

 O/F=   10.20000  %FUEL=  8.928571  R,EQ.RATIO= 0.892386  PHI,EQ.RATIO= 0.892386

                 CHAMBER   THROAT     EXIT     EXIT     EXIT     EXIT
 Pinf/P            1.0000   1.7388   20.000   25.000   30.000   35.000
 P, BAR            60.000   34.506   3.0000   2.4000   2.0000   1.7143
 T, K             3343.31  3148.39  2370.98  2298.99  2239.21  2187.97
 RHO, KG/CU M    6.0426 0 3.7317 0 4.4733-1 3.6980-1 3.1683-1 2.7820-1
 H, KJ/KG         1531.11  1000.95  -936.62 -1083.86 -1200.57 -1296.72
 U, KJ/KG          538.15   76.283 -1607.27 -1732.85 -1831.82 -1912.91
 G, KJ/KG        -29489.6 -28211.1 -22935.6 -22414.8 -21976.9 -21597.6
 S, KJ/(KG)(K)     9.2784   9.2784   9.2784   9.2784   9.2784   9.2784

 M, (1/n)          27.995   28.310   29.395   29.453   29.494   29.523
 (dLV/dLP)t      -1.01836 -1.01551 -1.00342 -1.00261 -1.00203 -1.00160
 (dLV/dLT)p        1.3591   1.3238   1.0964   1.0760   1.0608   1.0493
 Cp, KJ/(KG)(K)    3.7011   3.5883   2.2983   2.1457   2.0272   1.9336
 GAMMAs            1.1492   1.1467   1.1690   1.1761   1.1827   1.1887
 SON VEL,M/SEC     1068.2   1029.7    885.4    873.6    864.0    855.8
 MACH NUMBER        0.000    1.000    2.509    2.618    2.705    2.779

 PERFORMANCE PARAMETERS

 Ae/At                      1.0000   3.8666   4.5437   5.1888   5.8079
 CSTAR, M/SEC               1561.4   1561.4   1561.4   1561.4   1561.4
 CF                         0.6595   1.4228   1.4646   1.4969   1.5231
 Ivac, M/SEC                1927.7   2523.5   2570.7   2607.4   2637.3
 Isp, M/SEC                 1029.7   2221.6   2286.9   2337.4   2378.2

 MASS FRACTIONS

 *CO              0.06935  0.05662  0.00975  0.00720  0.00545  0.00420
 *CO2             0.17819  0.19820  0.27184  0.27584  0.27860  0.28056
 *H               0.00018  0.00013  0.00001  0.00001  0.00001  0.00000
 HNO              0.00001  0.00001  0.00000  0.00000  0.00000  0.00000
 HNO2             0.00001  0.00000  0.00000  0.00000  0.00000  0.00000
 HO2              0.00009  0.00006  0.00000  0.00000  0.00000  0.00000
 *H2              0.00068  0.00055  0.00010  0.00008  0.00006  0.00005
 H2O              0.08001  0.08357  0.09463  0.09523  0.09566  0.09598
 H2O2             0.00001  0.00000  0.00000  0.00000  0.00000  0.00000
 *NO              0.02944  0.02353  0.00647  0.00554  0.00485  0.00430
 NO2              0.00008  0.00005  0.00001  0.00001  0.00001  0.00000
 *N2              0.56586  0.56864  0.57663  0.57707  0.57739  0.57764
 N2O              0.00002  0.00001  0.00000  0.00000  0.00000  0.00000
 *O               0.00515  0.00372  0.00043  0.00031  0.00024  0.00019
 *OH              0.01847  0.01497  0.00362  0.00296  0.00247  0.00210
 *O2              0.05245  0.04993  0.03650  0.03575  0.03527  0.03497

  * THERMODYNAMIC PROPERTIES FITTED TO 20000.K

 NOTE. WEIGHT FRACTION OF FUEL IN TOTAL FUELS AND OF OXIDANT IN TOTAL OXIDANTS