
 *******************************************************************************

         NASA-GLENN CHEMICAL EQUILIBRIUM PROGRAM CEA2, MAY 21, 2004
                   BY  BONNIE MCBRIDE AND SANFORD GORDON
      REFS: NASA RP-1311, PART I, 1994 AND NASA RP-1311, PART II, 1996

 *******************************************************************************



 problem   case=rkt o/f=6,6.25,6.5,6.75,7,7.25,7.5,7.75,8,8.25,8.5,8.75,9,9.25,9.5,9.75,10,
       rocket  equilibrium  tcest,k=3250
   p,bar=20,24,28,32,36,40,44,48,52,56,60,
 react
   oxid=N2O wt=1 t,k=298
   fuel=C(gr) wt=0.02 t,k=298
   fuel=SASOL907 wt=0.98 t,k=298 h,kj/mol=-1438.200 C 50 H 102
 output
      siunits short
     plot p t rho
 end





              THEORETICAL ROCKET PERFORMANCE ASSUMING EQUILIBRIUM

           COMPOSITION DURING EXPANSION FROM INFINITE AREA COMBUSTOR

 Pin =   290.1 PSIA
 CASE = rkt            

             REACTANT                    WT FRACTION      ENERGY      TEMP
                                          (SEE NOTE)     KJ/KG-MOL      K  
 OXIDANT     N2O                          1.0000000     81594.206    298.000
 FUEL        C(gr)                        0.0200000        -1.279    298.000
 FUEL        SASOL907                     0.9800000  -1438200.000    298.000

 O/F=    6.00000  %FUEL= 14.285714  R,EQ.RATIO= 1.567773  PHI,EQ.RATIO= 1.567773

                 CHAMBER   THROAT
 Pinf/P            1.0000   1.7648
 P, BAR            20.000   11.333
 T, K             3171.74  2932.72
 RHO, KG/CU M    1.8682 0 1.1544 0
 H, KJ/KG         1302.76   720.01
 U, KJ/KG          232.20  -261.68
 G, KJ/KG        -31875.9 -29958.4
 S, KJ/(KG)(K)    10.4607  10.4607

 M, (1/n)          24.633   24.839
 (dLV/dLP)t      -1.01037 -1.00590
 (dLV/dLT)p        1.2060   1.1259
 Cp, KJ/(KG)(K)    3.0939   2.5937
 GAMMAs            1.1741   1.1872
 SON VEL,M/SEC     1121.2   1079.6
 MACH NUMBER        0.000    1.000

 PERFORMANCE PARAMETERS

 Ae/At                      1.0000
 CSTAR, M/SEC               1604.7
 CF                         0.6727
 Ivac, M/SEC                1988.9
 Isp, M/SEC                 1079.6


 MOLE FRACTIONS

 *CO              0.19956  0.19701
 *CO2             0.05145  0.05610
 *H               0.01633  0.01070
 *H2              0.07857  0.07923
 H2O              0.15671  0.16379
 *N               0.00001  0.00000
 *NO              0.00341  0.00164
 *N2              0.47801  0.48291
 *O               0.00152  0.00058
 *OH              0.01322  0.00756
 *O2              0.00119  0.00048

  * THERMODYNAMIC PROPERTIES FITTED TO 20000.K

 NOTE. WEIGHT FRACTION OF FUEL IN TOTAL FUELS AND OF OXIDANT IN TOTAL OXIDANTS










              THEORETICAL ROCKET PERFORMANCE ASSUMING EQUILIBRIUM

           COMPOSITION DURING EXPANSION FROM INFINITE AREA COMBUSTOR

 Pin =   348.1 PSIA
 CASE = rkt            

             REACTANT                    WT FRACTION      ENERGY      TEMP
                                          (SEE NOTE)     KJ/KG-MOL      K  
 OXIDANT     N2O                          1.0000000     81594.206    298.000
 FUEL        C(gr)                        0.0200000        -1.279    298.000
 FUEL        SASOL907                     0.9800000  -1438200.000    298.000

 O/F=    6.00000  %FUEL= 14.285714  R,EQ.RATIO= 1.567773  PHI,EQ.RATIO= 1.567773

                 CHAMBER   THROAT
 Pinf/P            1.0000   1.7664
 P, BAR            24.000   13.587
 T, K             3184.55  2940.24
 RHO, KG/CU M    2.2351 0 1.3815 0
 H, KJ/KG         1302.76   717.63
 U, KJ/KG          228.98  -265.88
 G, KJ/KG        -31814.1 -29858.6
 S, KJ/(KG)(K)    10.3992  10.3992

 M, (1/n)          24.659   24.857
 (dLV/dLP)t      -1.00980 -1.00550
 (dLV/dLT)p        1.1943   1.1172
 Cp, KJ/(KG)(K)    3.0102   2.5289
 GAMMAs            1.1764   1.1899
 SON VEL,M/SEC     1123.9   1081.8
 MACH NUMBER        0.000    1.000

 PERFORMANCE PARAMETERS

 Ae/At                      1.0000
 CSTAR, M/SEC               1605.9
 CF                         0.6736
 Ivac, M/SEC                1990.9
 Isp, M/SEC                 1081.8


 MOLE FRACTIONS

 *CO              0.19960  0.19707
 *CO2             0.05167  0.05622
 *H               0.01544  0.01002
 *H2              0.07853  0.07924
 H2O              0.15772  0.16450
 *N               0.00001  0.00000
 *NO              0.00330  0.00156
 *N2              0.47856  0.48330
 *O               0.00138  0.00051
 *OH              0.01269  0.00715
 *O2              0.00109  0.00042

  * THERMODYNAMIC PROPERTIES FITTED TO 20000.K

 NOTE. WEIGHT FRACTION OF FUEL IN TOTAL FUELS AND OF OXIDANT IN TOTAL OXIDANTS










              THEORETICAL ROCKET PERFORMANCE ASSUMING EQUILIBRIUM

           COMPOSITION DURING EXPANSION FROM INFINITE AREA COMBUSTOR

 Pin =   406.1 PSIA
 CASE = rkt            

             REACTANT                    WT FRACTION      ENERGY      TEMP
                                          (SEE NOTE)     KJ/KG-MOL      K  
 OXIDANT     N2O                          1.0000000     81594.206    298.000
 FUEL        C(gr)                        0.0200000        -1.279    298.000
 FUEL        SASOL907                     0.9800000  -1438200.000    298.000

 O/F=    6.00000  %FUEL= 14.285714  R,EQ.RATIO= 1.567773  PHI,EQ.RATIO= 1.567773

                 CHAMBER   THROAT
 Pinf/P            1.0000   1.7678
 P, BAR            28.000   15.839
 T, K             3195.11  2946.31
 RHO, KG/CU M    2.6012 0 1.6081 0
 H, KJ/KG         1302.76   715.66
 U, KJ/KG          226.33  -269.30
 G, KJ/KG        -31757.9 -29770.6
 S, KJ/(KG)(K)    10.3473  10.3473

 M, (1/n)          24.679   24.871
 (dLV/dLP)t      -1.00934 -1.00518
 (dLV/dLT)p        1.1847   1.1102
 Cp, KJ/(KG)(K)    2.9421   2.4769
 GAMMAs            1.1784   1.1921
 SON VEL,M/SEC     1126.3   1083.6
 MACH NUMBER        0.000    1.000

 PERFORMANCE PARAMETERS

 Ae/At                      1.0000
 CSTAR, M/SEC               1606.9
 CF                         0.6744
 Ivac, M/SEC                1992.6
 Isp, M/SEC                 1083.6


 MOLE FRACTIONS

 *CO              0.19964  0.19712
 *CO2             0.05184  0.05632
 *H               0.01470  0.00946
 HCO              0.00001  0.00000
 *H2              0.07849  0.07926
 H2O              0.15855  0.16508
 *N               0.00001  0.00000
 *NO              0.00321  0.00149
 *N2              0.47901  0.48362
 *O               0.00127  0.00046
 *OH              0.01224  0.00680
 *O2              0.00100  0.00038

  * THERMODYNAMIC PROPERTIES FITTED TO 20000.K

 NOTE. WEIGHT FRACTION OF FUEL IN TOTAL FUELS AND OF OXIDANT IN TOTAL OXIDANTS










              THEORETICAL ROCKET PERFORMANCE ASSUMING EQUILIBRIUM

           COMPOSITION DURING EXPANSION FROM INFINITE AREA COMBUSTOR

 Pin =   464.1 PSIA
 CASE = rkt            

             REACTANT                    WT FRACTION      ENERGY      TEMP
                                          (SEE NOTE)     KJ/KG-MOL      K  
 OXIDANT     N2O                          1.0000000     81594.206    298.000
 FUEL        C(gr)                        0.0200000        -1.279    298.000
 FUEL        SASOL907                     0.9800000  -1438200.000    298.000

 O/F=    6.00000  %FUEL= 14.285714  R,EQ.RATIO= 1.567773  PHI,EQ.RATIO= 1.567773

                 CHAMBER   THROAT
 Pinf/P            1.0000   1.7690
 P, BAR            32.000   18.090
 T, K             3204.03  2951.35
 RHO, KG/CU M    2.9666 0 1.8343 0
 H, KJ/KG         1302.76   713.99
 U, KJ/KG          224.10  -272.18
 G, KJ/KG        -31706.1 -29691.7
 S, KJ/(KG)(K)    10.3023  10.3023

 M, (1/n)          24.697   24.883
 (dLV/dLP)t      -1.00895 -1.00491
 (dLV/dLT)p        1.1767   1.1044
 Cp, KJ/(KG)(K)    2.8852   2.4340
 GAMMAs            1.1801   1.1941
 SON VEL,M/SEC     1128.2   1085.2
 MACH NUMBER        0.000    1.000

 PERFORMANCE PARAMETERS

 Ae/At                      1.0000
 CSTAR, M/SEC               1607.6
 CF                         0.6750
 Ivac, M/SEC                1993.9
 Isp, M/SEC                 1085.2


 MOLE FRACTIONS

 *CO              0.19967  0.19716
 *CO2             0.05200  0.05641
 *H               0.01409  0.00899
 HCO              0.00001  0.00000
 *H2              0.07846  0.07928
 H2O              0.15926  0.16557
 *N               0.00001  0.00000
 *NO              0.00313  0.00143
 *N2              0.47940  0.48388
 *O               0.00118  0.00042
 *OH              0.01185  0.00651
 *O2              0.00093  0.00035

  * THERMODYNAMIC PROPERTIES FITTED TO 20000.K

 NOTE. WEIGHT FRACTION OF FUEL IN TOTAL FUELS AND OF OXIDANT IN TOTAL OXIDANTS










              THEORETICAL ROCKET PERFORMANCE ASSUMING EQUILIBRIUM

           COMPOSITION DURING EXPANSION FROM INFINITE AREA COMBUSTOR

 Pin =   522.1 PSIA
 CASE = rkt            

             REACTANT                    WT FRACTION      ENERGY      TEMP
                                          (SEE NOTE)     KJ/KG-MOL      K  
 OXIDANT     N2O                          1.0000000     81594.206    298.000
 FUEL        C(gr)                        0.0200000        -1.279    298.000
 FUEL        SASOL907                     0.9800000  -1438200.000    298.000

 O/F=    6.00000  %FUEL= 14.285714  R,EQ.RATIO= 1.567773  PHI,EQ.RATIO= 1.567773

                 CHAMBER   THROAT
 Pinf/P            1.0000   1.7700
 P, BAR            36.000   20.339
 T, K             3211.73  2955.64
 RHO, KG/CU M    3.3315 0 2.0603 0
 H, KJ/KG         1302.76   712.54
 U, KJ/KG          222.18  -274.64
 G, KJ/KG        -31658.1 -29620.1
 S, KJ/(KG)(K)    10.2627  10.2627

 M, (1/n)          24.712   24.894
 (dLV/dLP)t      -1.00861 -1.00468
 (dLV/dLT)p        1.1698   1.0995
 Cp, KJ/(KG)(K)    2.8365   2.3977
 GAMMAs            1.1816   1.1958
 SON VEL,M/SEC     1130.0   1086.5
 MACH NUMBER        0.000    1.000

 PERFORMANCE PARAMETERS

 Ae/At                      1.0000
 CSTAR, M/SEC               1608.3
 CF                         0.6756
 Ivac, M/SEC                1995.1
 Isp, M/SEC                 1086.5


 MOLE FRACTIONS

 *CO              0.19969  0.19719
 *CO2             0.05213  0.05648
 *H               0.01356  0.00860
 HCO              0.00001  0.00000
 *H2              0.07843  0.07929
 H2O              0.15988  0.16598
 *N               0.00001  0.00000
 *NO              0.00306  0.00138
 *N2              0.47973  0.48411
 *O               0.00110  0.00038
 *OH              0.01151  0.00626
 *O2              0.00088  0.00032

  * THERMODYNAMIC PROPERTIES FITTED TO 20000.K

 NOTE. WEIGHT FRACTION OF FUEL IN TOTAL FUELS AND OF OXIDANT IN TOTAL OXIDANTS










              THEORETICAL ROCKET PERFORMANCE ASSUMING EQUILIBRIUM

           COMPOSITION DURING EXPANSION FROM INFINITE AREA COMBUSTOR

 Pin =   580.2 PSIA
 CASE = rkt            

             REACTANT                    WT FRACTION      ENERGY      TEMP
                                          (SEE NOTE)     KJ/KG-MOL      K  
 OXIDANT     N2O                          1.0000000     81594.206    298.000
 FUEL        C(gr)                        0.0200000        -1.279    298.000
 FUEL        SASOL907                     0.9800000  -1438200.000    298.000

 O/F=    6.00000  %FUEL= 14.285714  R,EQ.RATIO= 1.567773  PHI,EQ.RATIO= 1.567773

                 CHAMBER   THROAT
 Pinf/P            1.0000   1.7709
 P, BAR            40.000   22.587
 T, K             3218.47  2959.34
 RHO, KG/CU M    3.6959 0 2.2860 0
 H, KJ/KG         1302.76   711.28
 U, KJ/KG          220.49  -276.79
 G, KJ/KG        -31613.3 -29554.5
 S, KJ/(KG)(K)    10.2272  10.2272

 M, (1/n)          24.726   24.903
 (dLV/dLP)t      -1.00831 -1.00449
 (dLV/dLT)p        1.1637   1.0953
 Cp, KJ/(KG)(K)    2.7942   2.3665
 GAMMAs            1.1830   1.1973
 SON VEL,M/SEC     1131.5   1087.6
 MACH NUMBER        0.000    1.000

 PERFORMANCE PARAMETERS

 Ae/At                     1.00000
 CSTAR, M/SEC               1608.8
 CF                         0.6761
 Ivac, M/SEC                1996.1
 Isp, M/SEC                 1087.6


 MOLE FRACTIONS

 *CO              0.19971  0.19722
 *CO2             0.05225  0.05654
 *H               0.01309  0.00826
 HCO              0.00001  0.00000
 *H2              0.07841  0.07930
 H2O              0.16042  0.16634
 *N               0.00001  0.00000
 *NO              0.00299  0.00134
 *N2              0.48002  0.48430
 *O               0.00103  0.00036
 *OH              0.01121  0.00604
 *O2              0.00083  0.00030

  * THERMODYNAMIC PROPERTIES FITTED TO 20000.K

 NOTE. WEIGHT FRACTION OF FUEL IN TOTAL FUELS AND OF OXIDANT IN TOTAL OXIDANTS










              THEORETICAL ROCKET PERFORMANCE ASSUMING EQUILIBRIUM

           COMPOSITION DURING EXPANSION FROM INFINITE AREA COMBUSTOR

 Pin =   638.2 PSIA
 CASE = rkt            

             REACTANT                    WT FRACTION      ENERGY      TEMP
                                          (SEE NOTE)     KJ/KG-MOL      K  
 OXIDANT     N2O                          1.0000000     81594.206    298.000
 FUEL        C(gr)                        0.0200000        -1.279    298.000
 FUEL        SASOL907                     0.9800000  -1438200.000    298.000

 O/F=    6.00000  %FUEL= 14.285714  R,EQ.RATIO= 1.567773  PHI,EQ.RATIO= 1.567773

                 CHAMBER   THROAT
 Pinf/P            1.0000   1.7718
 P, BAR            44.000   24.834
 T, K             3224.46  2962.58
 RHO, KG/CU M    4.0599 0 2.5114 0
 H, KJ/KG         1302.76   710.16
 U, KJ/KG          219.00  -278.68
 G, KJ/KG        -31571.2 -29493.9
 S, KJ/(KG)(K)    10.1952  10.1952

 M, (1/n)          24.738   24.910
 (dLV/dLP)t      -1.00805 -1.00432
 (dLV/dLT)p        1.1584   1.0915
 Cp, KJ/(KG)(K)    2.7569   2.3392
 GAMMAs            1.1842   1.1986
 SON VEL,M/SEC     1132.9   1088.7
 MACH NUMBER        0.000    1.000

 PERFORMANCE PARAMETERS

 Ae/At                     1.00000
 CSTAR, M/SEC               1609.3
 CF                         0.6765
 Ivac, M/SEC                1997.0
 Isp, M/SEC                 1088.7


 MOLE FRACTIONS

 *CO              0.19972  0.19724
 *CO2             0.05235  0.05660
 *H               0.01268  0.00796
 HCO              0.00001  0.00000
 *H2              0.07839  0.07931
 H2O              0.16091  0.16666
 *N               0.00001  0.00000
 *NO              0.00293  0.00130
 *N2              0.48029  0.48447
 *O               0.00098  0.00033
 *OH              0.01093  0.00585
 *O2              0.00078  0.00028

  * THERMODYNAMIC PROPERTIES FITTED TO 20000.K

 NOTE. WEIGHT FRACTION OF FUEL IN TOTAL FUELS AND OF OXIDANT IN TOTAL OXIDANTS










              THEORETICAL ROCKET PERFORMANCE ASSUMING EQUILIBRIUM

           COMPOSITION DURING EXPANSION FROM INFINITE AREA COMBUSTOR

 Pin =   696.2 PSIA
 CASE = rkt            

             REACTANT                    WT FRACTION      ENERGY      TEMP
                                          (SEE NOTE)     KJ/KG-MOL      K  
 OXIDANT     N2O                          1.0000000     81594.206    298.000
 FUEL        C(gr)                        0.0200000        -1.279    298.000
 FUEL        SASOL907                     0.9800000  -1438200.000    298.000

 O/F=    6.00000  %FUEL= 14.285714  R,EQ.RATIO= 1.567773  PHI,EQ.RATIO= 1.567773

                 CHAMBER   THROAT
 Pinf/P            1.0000   1.7725
 P, BAR            48.000   27.080
 T, K             3229.84  2965.46
 RHO, KG/CU M    4.4236 0 2.7367 0
 H, KJ/KG         1302.76   709.15
 U, KJ/KG          217.66  -280.37
 G, KJ/KG        -31531.6 -29437.5
 S, KJ/(KG)(K)    10.1659  10.1659

 M, (1/n)          24.748   24.917
 (dLV/dLP)t      -1.00782 -1.00416
 (dLV/dLT)p        1.1536   1.0883
 Cp, KJ/(KG)(K)    2.7237   2.3151
 GAMMAs            1.1853   1.1998
 SON VEL,M/SEC     1134.1   1089.6
 MACH NUMBER        0.000    1.000

 PERFORMANCE PARAMETERS

 Ae/At                      1.0000
 CSTAR, M/SEC               1609.7
 CF                         0.6769
 Ivac, M/SEC                1997.8
 Isp, M/SEC                 1089.6


 MOLE FRACTIONS

 *CO              0.19974  0.19727
 *CO2             0.05244  0.05664
 *H               0.01232  0.00769
 HCO              0.00001  0.00000
 *H2              0.07837  0.07932
 H2O              0.16134  0.16694
 *N               0.00001  0.00000
 *NO              0.00288  0.00126
 *N2              0.48052  0.48463
 *O               0.00093  0.00031
 *OH              0.01069  0.00567
 *O2              0.00074  0.00026

  * THERMODYNAMIC PROPERTIES FITTED TO 20000.K

 NOTE. WEIGHT FRACTION OF FUEL IN TOTAL FUELS AND OF OXIDANT IN TOTAL OXIDANTS










              THEORETICAL ROCKET PERFORMANCE ASSUMING EQUILIBRIUM

           COMPOSITION DURING EXPANSION FROM INFINITE AREA COMBUSTOR

 Pin =   754.2 PSIA
 CASE = rkt            

             REACTANT                    WT FRACTION      ENERGY      TEMP
                                          (SEE NOTE)     KJ/KG-MOL      K  
 OXIDANT     N2O                          1.0000000     81594.206    298.000
 FUEL        C(gr)                        0.0200000        -1.279    298.000
 FUEL        SASOL907                     0.9800000  -1438200.000    298.000

 O/F=    6.00000  %FUEL= 14.285714  R,EQ.RATIO= 1.567773  PHI,EQ.RATIO= 1.567773

                 CHAMBER   THROAT
 Pinf/P            1.0000   1.7732
 P, BAR            52.000   29.326
 T, K             3234.69  2968.03
 RHO, KG/CU M    4.7868 0 2.9618 0
 H, KJ/KG         1302.76   708.24
 U, KJ/KG          216.45  -281.90
 G, KJ/KG        -31494.0 -29384.8
 S, KJ/(KG)(K)    10.1391  10.1391

 M, (1/n)          24.758   24.924
 (dLV/dLP)t      -1.00761 -1.00403
 (dLV/dLT)p        1.1493   1.0853
 Cp, KJ/(KG)(K)    2.6938   2.2936
 GAMMAs            1.1863   1.2009
 SON VEL,M/SEC     1135.2   1090.4
 MACH NUMBER        0.000    1.000

 PERFORMANCE PARAMETERS

 Ae/At                      1.0000
 CSTAR, M/SEC               1610.1
 CF                         0.6773
 Ivac, M/SEC                1998.5
 Isp, M/SEC                 1090.4


 MOLE FRACTIONS

 *CO              0.19975  0.19729
 *CO2             0.05253  0.05669
 *H               0.01199  0.00745
 HCO              0.00001  0.00000
 *H2              0.07835  0.07933
 H2O              0.16173  0.16719
 *N               0.00001  0.00000
 *NO              0.00283  0.00123
 *N2              0.48073  0.48477
 *O               0.00088  0.00029
 *OH              0.01046  0.00551
 *O2              0.00071  0.00024

  * THERMODYNAMIC PROPERTIES FITTED TO 20000.K

 NOTE. WEIGHT FRACTION OF FUEL IN TOTAL FUELS AND OF OXIDANT IN TOTAL OXIDANTS










              THEORETICAL ROCKET PERFORMANCE ASSUMING EQUILIBRIUM

           COMPOSITION DURING EXPANSION FROM INFINITE AREA COMBUSTOR

 Pin =   812.2 PSIA
 CASE = rkt            

             REACTANT                    WT FRACTION      ENERGY      TEMP
                                          (SEE NOTE)     KJ/KG-MOL      K  
 OXIDANT     N2O                          1.0000000     81594.206    298.000
 FUEL        C(gr)                        0.0200000        -1.279    298.000
 FUEL        SASOL907                     0.9800000  -1438200.000    298.000

 O/F=    6.00000  %FUEL= 14.285714  R,EQ.RATIO= 1.567773  PHI,EQ.RATIO= 1.567773

                 CHAMBER   THROAT
 Pinf/P            1.0000   1.7738
 P, BAR            56.000   31.571
 T, K             3239.12  2970.35
 RHO, KG/CU M    5.1498 0 3.1868 0
 H, KJ/KG         1302.76   707.40
 U, KJ/KG          215.35  -283.28
 G, KJ/KG        -31458.3 -29335.2
 S, KJ/(KG)(K)    10.1142  10.1142

 M, (1/n)          24.767   24.929
 (dLV/dLP)t      -1.00741 -1.00391
 (dLV/dLT)p        1.1454   1.0827
 Cp, KJ/(KG)(K)    2.6667   2.2743
 GAMMAs            1.1873   1.2019
 SON VEL,M/SEC     1136.3   1091.2
 MACH NUMBER        0.000    1.000

 PERFORMANCE PARAMETERS

 Ae/At                     1.00000
 CSTAR, M/SEC               1610.4
 CF                         0.6776
 Ivac, M/SEC                1999.1
 Isp, M/SEC                 1091.2


 MOLE FRACTIONS

 *CO              0.19976  0.19730
 *CO2             0.05261  0.05673
 *H               0.01169  0.00723
 HCO              0.00001  0.00000
 *H2              0.07833  0.07934
 H2O              0.16209  0.16742
 *N               0.00001  0.00000
 NH3              0.00001  0.00000
 *NO              0.00278  0.00120
 *N2              0.48093  0.48489
 *O               0.00084  0.00028
 *OH              0.01025  0.00537
 *O2              0.00068  0.00023

  * THERMODYNAMIC PROPERTIES FITTED TO 20000.K

 NOTE. WEIGHT FRACTION OF FUEL IN TOTAL FUELS AND OF OXIDANT IN TOTAL OXIDANTS










              THEORETICAL ROCKET PERFORMANCE ASSUMING EQUILIBRIUM

           COMPOSITION DURING EXPANSION FROM INFINITE AREA COMBUSTOR

 Pin =   870.2 PSIA
 CASE = rkt            

             REACTANT                    WT FRACTION      ENERGY      TEMP
                                          (SEE NOTE)     KJ/KG-MOL      K  
 OXIDANT     N2O                          1.0000000     81594.206    298.000
 FUEL        C(gr)                        0.0200000        -1.279    298.000
 FUEL        SASOL907                     0.9800000  -1438200.000    298.000

 O/F=    6.00000  %FUEL= 14.285714  R,EQ.RATIO= 1.567773  PHI,EQ.RATIO= 1.567773

                 CHAMBER   THROAT
 Pinf/P            1.0000   1.7744
 P, BAR            60.000   33.815
 T, K             3243.18  2972.46
 RHO, KG/CU M    5.5126 0 3.4116 0
 H, KJ/KG         1302.76   706.64
 U, KJ/KG          214.34  -284.54
 G, KJ/KG        -31424.3 -29288.5
 S, KJ/(KG)(K)    10.0910  10.0910

 M, (1/n)          24.775   24.934
 (dLV/dLP)t      -1.00724 -1.00379
 (dLV/dLT)p        1.1418   1.0803
 Cp, KJ/(KG)(K)    2.6419   2.2567
 GAMMAs            1.1882   1.2029
 SON VEL,M/SEC     1137.2   1091.9
 MACH NUMBER        0.000    1.000

 PERFORMANCE PARAMETERS

 Ae/At                      1.0000
 CSTAR, M/SEC               1610.7
 CF                         0.6779
 Ivac, M/SEC                1999.7
 Isp, M/SEC                 1091.9


 MOLE FRACTIONS

 *CO              0.19977  0.19732
 *CO2             0.05268  0.05676
 *H               0.01141  0.00703
 HCO              0.00001  0.00000
 *H2              0.07832  0.07934
 H2O              0.16243  0.16763
 *N               0.00001  0.00000
 NH3              0.00001  0.00000
 *NO              0.00273  0.00117
 *N2              0.48111  0.48500
 *O               0.00081  0.00026
 *OH              0.01006  0.00524
 *O2              0.00065  0.00022

  * THERMODYNAMIC PROPERTIES FITTED TO 20000.K

 NOTE. WEIGHT FRACTION OF FUEL IN TOTAL FUELS AND OF OXIDANT IN TOTAL OXIDANTS










              THEORETICAL ROCKET PERFORMANCE ASSUMING EQUILIBRIUM

           COMPOSITION DURING EXPANSION FROM INFINITE AREA COMBUSTOR

 Pin =   290.1 PSIA
 CASE = rkt            

             REACTANT                    WT FRACTION      ENERGY      TEMP
                                          (SEE NOTE)     KJ/KG-MOL      K  
 OXIDANT     N2O                          1.0000000     81594.206    298.000
 FUEL        C(gr)                        0.0200000        -1.279    298.000
 FUEL        SASOL907                     0.9800000  -1438200.000    298.000

 O/F=    6.25000  %FUEL= 13.793103  R,EQ.RATIO= 1.505062  PHI,EQ.RATIO= 1.505062

                 CHAMBER   THROAT
 Pinf/P            1.0000   1.7584
 P, BAR            20.000   11.374
 T, K             3204.97  2978.27
 RHO, KG/CU M    1.8695 0 1.1547 0
 H, KJ/KG         1321.77   742.02
 U, KJ/KG          251.99  -242.95
 G, KJ/KG        -32017.8 -30239.3
 S, KJ/(KG)(K)    10.4024  10.4024

 M, (1/n)          24.910   25.141
 (dLV/dLP)t      -1.01239 -1.00753
 (dLV/dLT)p        1.2457   1.1603
 Cp, KJ/(KG)(K)    3.3313   2.8171
 GAMMAs            1.1670   1.1772
 SON VEL,M/SEC     1117.3   1076.8
 MACH NUMBER        0.000    1.000

 PERFORMANCE PARAMETERS

 Ae/At                      1.0000
 CSTAR, M/SEC               1608.5
 CF                         0.6695
 Ivac, M/SEC                1991.5
 Isp, M/SEC                 1076.8


 MOLE FRACTIONS

 *CO              0.18860  0.18523
 *CO2             0.05647  0.06212
 *H               0.01667  0.01143
 *H2              0.06830  0.06798
 H2O              0.15943  0.16772
 *N               0.00001  0.00000
 *NO              0.00460  0.00244
 *N2              0.48559  0.49121
 *O               0.00218  0.00095
 *OH              0.01614  0.00998
 *O2              0.00199  0.00092

  * THERMODYNAMIC PROPERTIES FITTED TO 20000.K

 NOTE. WEIGHT FRACTION OF FUEL IN TOTAL FUELS AND OF OXIDANT IN TOTAL OXIDANTS










              THEORETICAL ROCKET PERFORMANCE ASSUMING EQUILIBRIUM

           COMPOSITION DURING EXPANSION FROM INFINITE AREA COMBUSTOR

 Pin =   348.1 PSIA
 CASE = rkt            

             REACTANT                    WT FRACTION      ENERGY      TEMP
                                          (SEE NOTE)     KJ/KG-MOL      K  
 OXIDANT     N2O                          1.0000000     81594.206    298.000
 FUEL        C(gr)                        0.0200000        -1.279    298.000
 FUEL        SASOL907                     0.9800000  -1438200.000    298.000

 O/F=    6.25000  %FUEL= 13.793103  R,EQ.RATIO= 1.505062  PHI,EQ.RATIO= 1.505062

                 CHAMBER   THROAT
 Pinf/P            1.0000   1.7600
 P, BAR            24.000   13.636
 T, K             3219.20  2987.34
 RHO, KG/CU M    2.2361 0 1.3814 0
 H, KJ/KG         1321.77   739.48
 U, KJ/KG          248.47  -247.65
 G, KJ/KG        -31969.9 -30154.4
 S, KJ/(KG)(K)    10.3416  10.3416

 M, (1/n)          24.938   25.162
 (dLV/dLP)t      -1.01177 -1.00705
 (dLV/dLT)p        1.2328   1.1499
 Cp, KJ/(KG)(K)    3.2400   2.7405
 GAMMAs            1.1691   1.1798
 SON VEL,M/SEC     1120.2   1079.2
 MACH NUMBER        0.000    1.000

 PERFORMANCE PARAMETERS

 Ae/At                      1.0000
 CSTAR, M/SEC               1609.9
 CF                         0.6703
 Ivac, M/SEC                1993.9
 Isp, M/SEC                 1079.2


 MOLE FRACTIONS

 *CO              0.18857  0.18522
 *CO2             0.05679  0.06234
 *H               0.01579  0.01073
 HO2              0.00001  0.00000
 *H2              0.06816  0.06791
 H2O              0.16057  0.16859
 *N               0.00001  0.00000
 *NO              0.00449  0.00234
 *N2              0.48620  0.49168
 *O               0.00199  0.00085
 *OH              0.01557  0.00950
 *O2              0.00183  0.00083

  * THERMODYNAMIC PROPERTIES FITTED TO 20000.K

 NOTE. WEIGHT FRACTION OF FUEL IN TOTAL FUELS AND OF OXIDANT IN TOTAL OXIDANTS










              THEORETICAL ROCKET PERFORMANCE ASSUMING EQUILIBRIUM

           COMPOSITION DURING EXPANSION FROM INFINITE AREA COMBUSTOR

 Pin =   406.1 PSIA
 CASE = rkt            

             REACTANT                    WT FRACTION      ENERGY      TEMP
                                          (SEE NOTE)     KJ/KG-MOL      K  
 OXIDANT     N2O                          1.0000000     81594.206    298.000
 FUEL        C(gr)                        0.0200000        -1.279    298.000
 FUEL        SASOL907                     0.9800000  -1438200.000    298.000

 O/F=    6.25000  %FUEL= 13.793103  R,EQ.RATIO= 1.505062  PHI,EQ.RATIO= 1.505062

                 CHAMBER   THROAT
 Pinf/P            1.0000   1.7614
 P, BAR            28.000   15.896
 T, K             3230.97  2994.70
 RHO, KG/CU M    2.6017 0 1.6075 0
 H, KJ/KG         1321.77   737.36
 U, KJ/KG          245.56  -251.51
 G, KJ/KG        -31925.7 -30078.9
 S, KJ/(KG)(K)    10.2902  10.2902

 M, (1/n)          24.962   25.180
 (dLV/dLP)t      -1.01126 -1.00666
 (dLV/dLT)p        1.2222   1.1415
 Cp, KJ/(KG)(K)    3.1653   2.6787
 GAMMAs            1.1709   1.1820
 SON VEL,M/SEC     1122.5   1081.1
 MACH NUMBER        0.000    1.000

 PERFORMANCE PARAMETERS

 Ae/At                      1.0000
 CSTAR, M/SEC               1611.1
 CF                         0.6710
 Ivac, M/SEC                1995.8
 Isp, M/SEC                 1081.1


 MOLE FRACTIONS

 *CO              0.18853  0.18521
 *CO2             0.05705  0.06252
 *H               0.01507  0.01017
 HO2              0.00001  0.00000
 *H2              0.06805  0.06786
 H2O              0.16151  0.16930
 *N               0.00001  0.00000
 *NO              0.00439  0.00225
 *N2              0.48671  0.49206
 *O               0.00184  0.00077
 *OH              0.01509  0.00909
 *O2              0.00171  0.00076

  * THERMODYNAMIC PROPERTIES FITTED TO 20000.K

 NOTE. WEIGHT FRACTION OF FUEL IN TOTAL FUELS AND OF OXIDANT IN TOTAL OXIDANTS










              THEORETICAL ROCKET PERFORMANCE ASSUMING EQUILIBRIUM

           COMPOSITION DURING EXPANSION FROM INFINITE AREA COMBUSTOR

 Pin =   464.1 PSIA
 CASE = rkt            

             REACTANT                    WT FRACTION      ENERGY      TEMP
                                          (SEE NOTE)     KJ/KG-MOL      K  
 OXIDANT     N2O                          1.0000000     81594.206    298.000
 FUEL        C(gr)                        0.0200000        -1.279    298.000
 FUEL        SASOL907                     0.9800000  -1438200.000    298.000

 O/F=    6.25000  %FUEL= 13.793103  R,EQ.RATIO= 1.505062  PHI,EQ.RATIO= 1.505062

                 CHAMBER   THROAT
 Pinf/P            1.0000   1.7626
 P, BAR            32.000   18.155
 T, K             3240.96  3000.86
 RHO, KG/CU M    2.9666 0 1.8332 0
 H, KJ/KG         1321.77   735.56
 U, KJ/KG          243.10  -254.77
 G, KJ/KG        -31884.4 -30010.6
 S, KJ/(KG)(K)    10.2458  10.2458

 M, (1/n)          24.982   25.194
 (dLV/dLP)t      -1.01083 -1.00634
 (dLV/dLT)p        1.2133   1.1344
 Cp, KJ/(KG)(K)    3.1026   2.6273
 GAMMAs            1.1725   1.1839
 SON VEL,M/SEC     1124.6   1082.8
 MACH NUMBER        0.000    1.000

 PERFORMANCE PARAMETERS

 Ae/At                      1.0000
 CSTAR, M/SEC               1612.1
 CF                         0.6717
 Ivac, M/SEC                1997.4
 Isp, M/SEC                 1082.8


 MOLE FRACTIONS

 *CO              0.18850  0.18521
 *CO2             0.05728  0.06267
 *H               0.01447  0.00969
 HCO              0.00001  0.00000
 HO2              0.00001  0.00000
 *H2              0.06795  0.06782
 H2O              0.16232  0.16990
 *N               0.00001  0.00000
 *NO              0.00430  0.00218
 *N2              0.48715  0.49238
 *O               0.00172  0.00070
 *OH              0.01467  0.00874
 *O2              0.00160  0.00070

  * THERMODYNAMIC PROPERTIES FITTED TO 20000.K

 NOTE. WEIGHT FRACTION OF FUEL IN TOTAL FUELS AND OF OXIDANT IN TOTAL OXIDANTS










              THEORETICAL ROCKET PERFORMANCE ASSUMING EQUILIBRIUM

           COMPOSITION DURING EXPANSION FROM INFINITE AREA COMBUSTOR

 Pin =   522.1 PSIA
 CASE = rkt            

             REACTANT                    WT FRACTION      ENERGY      TEMP
                                          (SEE NOTE)     KJ/KG-MOL      K  
 OXIDANT     N2O                          1.0000000     81594.206    298.000
 FUEL        C(gr)                        0.0200000        -1.279    298.000
 FUEL        SASOL907                     0.9800000  -1438200.000    298.000

 O/F=    6.25000  %FUEL= 13.793103  R,EQ.RATIO= 1.505062  PHI,EQ.RATIO= 1.505062

                 CHAMBER   THROAT
 Pinf/P            1.0000   1.7636
 P, BAR            36.000   20.412
 T, K             3249.62  3006.12
 RHO, KG/CU M    3.3309 0 2.0586 0
 H, KJ/KG         1321.77   733.99
 U, KJ/KG          240.96  -257.58
 G, KJ/KG        -31845.8 -29948.2
 S, KJ/(KG)(K)    10.2066  10.2066

 M, (1/n)          24.999   25.207
 (dLV/dLP)t      -1.01045 -1.00606
 (dLV/dLT)p        1.2056   1.1284
 Cp, KJ/(KG)(K)    3.0487   2.5837
 GAMMAs            1.1739   1.1855
 SON VEL,M/SEC     1126.4   1084.2
 MACH NUMBER        0.000    1.000

 PERFORMANCE PARAMETERS

 Ae/At                      1.0000
 CSTAR, M/SEC               1612.9
 CF                         0.6722
 Ivac, M/SEC                1998.8
 Isp, M/SEC                 1084.2


 MOLE FRACTIONS

 *CO              0.18847  0.18520
 *CO2             0.05748  0.06280
 *H               0.01395  0.00929
 HCO              0.00001  0.00000
 HO2              0.00001  0.00000
 *H2              0.06787  0.06778
 H2O              0.16302  0.17041
 *N               0.00001  0.00000
 *NO              0.00422  0.00211
 *N2              0.48753  0.49266
 *O               0.00162  0.00065
 *OH              0.01429  0.00844
 *O2              0.00152  0.00065

  * THERMODYNAMIC PROPERTIES FITTED TO 20000.K

 NOTE. WEIGHT FRACTION OF FUEL IN TOTAL FUELS AND OF OXIDANT IN TOTAL OXIDANTS










              THEORETICAL ROCKET PERFORMANCE ASSUMING EQUILIBRIUM

           COMPOSITION DURING EXPANSION FROM INFINITE AREA COMBUSTOR

 Pin =   580.2 PSIA
 CASE = rkt            

             REACTANT                    WT FRACTION      ENERGY      TEMP
                                          (SEE NOTE)     KJ/KG-MOL      K  
 OXIDANT     N2O                          1.0000000     81594.206    298.000
 FUEL        C(gr)                        0.0200000        -1.279    298.000
 FUEL        SASOL907                     0.9800000  -1438200.000    298.000

 O/F=    6.25000  %FUEL= 13.793103  R,EQ.RATIO= 1.505062  PHI,EQ.RATIO= 1.505062

                 CHAMBER   THROAT
 Pinf/P            1.0000   1.7646
 P, BAR            40.000   22.669
 T, K             3257.24  3010.68
 RHO, KG/CU M    3.6946 0 2.2836 0
 H, KJ/KG         1321.77   732.61
 U, KJ/KG          239.09  -260.04
 G, KJ/KG        -31809.5 -29890.7
 S, KJ/(KG)(K)    10.1716  10.1716

 M, (1/n)          25.014   25.218
 (dLV/dLP)t      -1.01012 -1.00582
 (dLV/dLT)p        1.1988   1.1232
 Cp, KJ/(KG)(K)    3.0017   2.5460
 GAMMAs            1.1751   1.1870
 SON VEL,M/SEC     1128.0   1085.5
 MACH NUMBER        0.000    1.000

 PERFORMANCE PARAMETERS

 Ae/At                      1.0000
 CSTAR, M/SEC               1613.6
 CF                         0.6727
 Ivac, M/SEC                2000.0
 Isp, M/SEC                 1085.5


 MOLE FRACTIONS

 *CO              0.18844  0.18519
 *CO2             0.05766  0.06292
 *H               0.01349  0.00893
 HCO              0.00001  0.00000
 HO2              0.00001  0.00000
 *H2              0.06779  0.06775
 H2O              0.16364  0.17086
 *N               0.00001  0.00000
 *NO              0.00414  0.00205
 *N2              0.48786  0.49290
 *O               0.00153  0.00061
 *OH              0.01396  0.00817
 *O2              0.00144  0.00060

  * THERMODYNAMIC PROPERTIES FITTED TO 20000.K

 NOTE. WEIGHT FRACTION OF FUEL IN TOTAL FUELS AND OF OXIDANT IN TOTAL OXIDANTS










              THEORETICAL ROCKET PERFORMANCE ASSUMING EQUILIBRIUM

           COMPOSITION DURING EXPANSION FROM INFINITE AREA COMBUSTOR

 Pin =   638.2 PSIA
 CASE = rkt            

             REACTANT                    WT FRACTION      ENERGY      TEMP
                                          (SEE NOTE)     KJ/KG-MOL      K  
 OXIDANT     N2O                          1.0000000     81594.206    298.000
 FUEL        C(gr)                        0.0200000        -1.279    298.000
 FUEL        SASOL907                     0.9800000  -1438200.000    298.000

 O/F=    6.25000  %FUEL= 13.793103  R,EQ.RATIO= 1.505062  PHI,EQ.RATIO= 1.505062

                 CHAMBER   THROAT
 Pinf/P            1.0000   1.7654
 P, BAR            44.000   24.924
 T, K             3264.03  3014.70
 RHO, KG/CU M    4.0578 0 2.5084 0
 H, KJ/KG         1321.77   731.38
 U, KJ/KG          237.43  -262.22
 G, KJ/KG        -31775.1 -29837.3
 S, KJ/(KG)(K)    10.1399  10.1399

 M, (1/n)          25.028   25.227
 (dLV/dLP)t      -1.00983 -1.00561
 (dLV/dLT)p        1.1928   1.1187
 Cp, KJ/(KG)(K)    2.9601   2.5129
 GAMMAs            1.1763   1.1884
 SON VEL,M/SEC     1129.4   1086.6
 MACH NUMBER        0.000    1.000

 PERFORMANCE PARAMETERS

 Ae/At                      1.0000
 CSTAR, M/SEC               1614.2
 CF                         0.6732
 Ivac, M/SEC                2001.0
 Isp, M/SEC                 1086.6


 MOLE FRACTIONS

 *CO              0.18841  0.18519
 *CO2             0.05782  0.06302
 *H               0.01308  0.00862
 HCO              0.00001  0.00000
 HO2              0.00001  0.00000
 *H2              0.06772  0.06772
 H2O              0.16420  0.17126
 *N               0.00001  0.00000
 *NO              0.00408  0.00200
 *N2              0.48816  0.49312
 *O               0.00145  0.00057
 *OH              0.01366  0.00793
 *O2              0.00137  0.00057

  * THERMODYNAMIC PROPERTIES FITTED TO 20000.K

 NOTE. WEIGHT FRACTION OF FUEL IN TOTAL FUELS AND OF OXIDANT IN TOTAL OXIDANTS










              THEORETICAL ROCKET PERFORMANCE ASSUMING EQUILIBRIUM

           COMPOSITION DURING EXPANSION FROM INFINITE AREA COMBUSTOR

 Pin =   696.2 PSIA
 CASE = rkt            

             REACTANT                    WT FRACTION      ENERGY      TEMP
                                          (SEE NOTE)     KJ/KG-MOL      K  
 OXIDANT     N2O                          1.0000000     81594.206    298.000
 FUEL        C(gr)                        0.0200000        -1.279    298.000
 FUEL        SASOL907                     0.9800000  -1438200.000    298.000

 O/F=    6.25000  %FUEL= 13.793103  R,EQ.RATIO= 1.505062  PHI,EQ.RATIO= 1.505062

                 CHAMBER   THROAT
 Pinf/P            1.0000   1.7662
 P, BAR            48.000   27.178
 T, K             3270.13  3018.27
 RHO, KG/CU M    4.4205 0 2.7330 0
 H, KJ/KG         1321.77   730.26
 U, KJ/KG          235.93  -264.17
 G, KJ/KG        -31742.5 -29787.4
 S, KJ/(KG)(K)    10.1110  10.1110

 M, (1/n)          25.040   25.236
 (dLV/dLP)t      -1.00956 -1.00542
 (dLV/dLT)p        1.1874   1.1146
 Cp, KJ/(KG)(K)    2.9229   2.4835
 GAMMAs            1.1773   1.1896
 SON VEL,M/SEC     1130.7   1087.7
 MACH NUMBER        0.000    1.000

 PERFORMANCE PARAMETERS

 Ae/At                      1.0000
 CSTAR, M/SEC               1614.8
 CF                         0.6736
 Ivac, M/SEC                2001.9
 Isp, M/SEC                 1087.7


 MOLE FRACTIONS

 *CO              0.18839  0.18518
 *CO2             0.05797  0.06311
 *H               0.01272  0.00835
 HCO              0.00001  0.00000
 HO2              0.00001  0.00000
 *H2              0.06766  0.06770
 H2O              0.16470  0.17161
 *N               0.00001  0.00000
 *NO              0.00401  0.00195
 *N2              0.48844  0.49331
 *O               0.00138  0.00053
 *OH              0.01338  0.00772
 *O2              0.00131  0.00054

  * THERMODYNAMIC PROPERTIES FITTED TO 20000.K

 NOTE. WEIGHT FRACTION OF FUEL IN TOTAL FUELS AND OF OXIDANT IN TOTAL OXIDANTS










              THEORETICAL ROCKET PERFORMANCE ASSUMING EQUILIBRIUM

           COMPOSITION DURING EXPANSION FROM INFINITE AREA COMBUSTOR

 Pin =   754.2 PSIA
 CASE = rkt            

             REACTANT                    WT FRACTION      ENERGY      TEMP
                                          (SEE NOTE)     KJ/KG-MOL      K  
 OXIDANT     N2O                          1.0000000     81594.206    298.000
 FUEL        C(gr)                        0.0200000        -1.279    298.000
 FUEL        SASOL907                     0.9800000  -1438200.000    298.000

 O/F=    6.25000  %FUEL= 13.793103  R,EQ.RATIO= 1.505062  PHI,EQ.RATIO= 1.505062

                 CHAMBER   THROAT
 Pinf/P            1.0000   1.7669
 P, BAR            52.000   29.431
 T, K             3275.66  3021.48
 RHO, KG/CU M    4.7830 0 2.9573 0
 H, KJ/KG         1321.77   729.26
 U, KJ/KG          234.57  -265.93
 G, KJ/KG        -31711.4 -29740.6
 S, KJ/(KG)(K)    10.0844  10.0844

 M, (1/n)          25.051   25.244
 (dLV/dLP)t      -1.00932 -1.00525
 (dLV/dLT)p        1.1826   1.1110
 Cp, KJ/(KG)(K)    2.8894   2.4572
 GAMMAs            1.1783   1.1908
 SON VEL,M/SEC     1131.8   1088.6
 MACH NUMBER        0.000    1.000

 PERFORMANCE PARAMETERS

 Ae/At                      1.0000
 CSTAR, M/SEC               1615.3
 CF                         0.6739
 Ivac, M/SEC                2002.8
 Isp, M/SEC                 1088.6


 MOLE FRACTIONS

 *CO              0.18836  0.18517
 *CO2             0.05810  0.06319
 *H               0.01239  0.00810
 HCO              0.00001  0.00000
 HO2              0.00001  0.00000
 *H2              0.06760  0.06767
 H2O              0.16515  0.17193
 *N               0.00001  0.00000
 *NO              0.00395  0.00191
 *N2              0.48868  0.49348
 *O               0.00132  0.00051
 *OH              0.01313  0.00752
 *O2              0.00126  0.00051

  * THERMODYNAMIC PROPERTIES FITTED TO 20000.K

 NOTE. WEIGHT FRACTION OF FUEL IN TOTAL FUELS AND OF OXIDANT IN TOTAL OXIDANTS










              THEORETICAL ROCKET PERFORMANCE ASSUMING EQUILIBRIUM

           COMPOSITION DURING EXPANSION FROM INFINITE AREA COMBUSTOR

 Pin =   812.2 PSIA
 CASE = rkt            

             REACTANT                    WT FRACTION      ENERGY      TEMP
                                          (SEE NOTE)     KJ/KG-MOL      K  
 OXIDANT     N2O                          1.0000000     81594.206    298.000
 FUEL        C(gr)                        0.0200000        -1.279    298.000
 FUEL        SASOL907                     0.9800000  -1438200.000    298.000

 O/F=    6.25000  %FUEL= 13.793103  R,EQ.RATIO= 1.505062  PHI,EQ.RATIO= 1.505062

                 CHAMBER   THROAT
 Pinf/P            1.0000   1.7675
 P, BAR            56.000   31.683
 T, K             3280.72  3024.38
 RHO, KG/CU M    5.1450 0 3.1815 0
 H, KJ/KG         1321.77   728.33
 U, KJ/KG          233.33  -267.54
 G, KJ/KG        -31681.8 -29696.5
 S, KJ/(KG)(K)    10.0598  10.0598

 M, (1/n)          25.061   25.251
 (dLV/dLP)t      -1.00910 -1.00510
 (dLV/dLT)p        1.1781   1.1077
 Cp, KJ/(KG)(K)    2.8589   2.4335
 GAMMAs            1.1792   1.1918
 SON VEL,M/SEC     1132.9   1089.4
 MACH NUMBER        0.000    1.000

 PERFORMANCE PARAMETERS

 Ae/At                      1.0000
 CSTAR, M/SEC               1615.7
 CF                         0.6743
 Ivac, M/SEC                2003.6
 Isp, M/SEC                 1089.4


 MOLE FRACTIONS

 *CO              0.18834  0.18517
 *CO2             0.05822  0.06326
 *H               0.01209  0.00787
 HCO              0.00001  0.00000
 HO2              0.00001  0.00000
 *H2              0.06755  0.06765
 H2O              0.16557  0.17222
 *N               0.00001  0.00000
 *NO              0.00390  0.00186
 *N2              0.48891  0.49364
 *O               0.00127  0.00048
 *OH              0.01289  0.00734
 *O2              0.00121  0.00048

  * THERMODYNAMIC PROPERTIES FITTED TO 20000.K

 NOTE. WEIGHT FRACTION OF FUEL IN TOTAL FUELS AND OF OXIDANT IN TOTAL OXIDANTS










              THEORETICAL ROCKET PERFORMANCE ASSUMING EQUILIBRIUM

           COMPOSITION DURING EXPANSION FROM INFINITE AREA COMBUSTOR

 Pin =   870.2 PSIA
 CASE = rkt            

             REACTANT                    WT FRACTION      ENERGY      TEMP
                                          (SEE NOTE)     KJ/KG-MOL      K  
 OXIDANT     N2O                          1.0000000     81594.206    298.000
 FUEL        C(gr)                        0.0200000        -1.279    298.000
 FUEL        SASOL907                     0.9800000  -1438200.000    298.000

 O/F=    6.25000  %FUEL= 13.793103  R,EQ.RATIO= 1.505062  PHI,EQ.RATIO= 1.505062

                 CHAMBER   THROAT
 Pinf/P            1.0000   1.7681
 P, BAR            60.000   33.935
 T, K             3285.37  3027.03
 RHO, KG/CU M    5.5068 0 3.4054 0
 H, KJ/KG         1321.77   727.48
 U, KJ/KG          232.20  -269.01
 G, KJ/KG        -31653.4 -29654.7
 S, KJ/(KG)(K)    10.0369  10.0369

 M, (1/n)          25.071   25.257
 (dLV/dLP)t      -1.00890 -1.00496
 (dLV/dLT)p        1.1741   1.1047
 Cp, KJ/(KG)(K)    2.8309   2.4119
 GAMMAs            1.1800   1.1928
 SON VEL,M/SEC     1133.9   1090.2
 MACH NUMBER        0.000    1.000

 PERFORMANCE PARAMETERS

 Ae/At                      1.0000
 CSTAR, M/SEC               1616.1
 CF                         0.6746
 Ivac, M/SEC                2004.2
 Isp, M/SEC                 1090.2


 MOLE FRACTIONS

 *CO              0.18832  0.18516
 *CO2             0.05833  0.06333
 *H               0.01182  0.00767
 HCO              0.00001  0.00000
 HO2              0.00001  0.00000
 *H2              0.06750  0.06763
 H2O              0.16595  0.17249
 *N               0.00001  0.00000
 *NO              0.00385  0.00183
 *N2              0.48912  0.49378
 *O               0.00122  0.00046
 *OH              0.01268  0.00718
 *O2              0.00117  0.00046

  * THERMODYNAMIC PROPERTIES FITTED TO 20000.K

 NOTE. WEIGHT FRACTION OF FUEL IN TOTAL FUELS AND OF OXIDANT IN TOTAL OXIDANTS










              THEORETICAL ROCKET PERFORMANCE ASSUMING EQUILIBRIUM

           COMPOSITION DURING EXPANSION FROM INFINITE AREA COMBUSTOR

 Pin =   290.1 PSIA
 CASE = rkt            

             REACTANT                    WT FRACTION      ENERGY      TEMP
                                          (SEE NOTE)     KJ/KG-MOL      K  
 OXIDANT     N2O                          1.0000000     81594.206    298.000
 FUEL        C(gr)                        0.0200000        -1.279    298.000
 FUEL        SASOL907                     0.9800000  -1438200.000    298.000

 O/F=    6.50000  %FUEL= 13.333333  R,EQ.RATIO= 1.447175  PHI,EQ.RATIO= 1.447175

                 CHAMBER   THROAT
 Pinf/P            1.0000   1.7528
 P, BAR            20.000   11.410
 T, K             3230.55  3014.89
 RHO, KG/CU M    1.8736 0 1.1569 0
 H, KJ/KG         1339.50   763.35
 U, KJ/KG          272.02  -222.92
 G, KJ/KG        -32085.6 -30430.5
 S, KJ/(KG)(K)    10.3466  10.3466

 M, (1/n)          25.162   25.416
 (dLV/dLP)t      -1.01441 -1.00935
 (dLV/dLT)p        1.2850   1.1986
 Cp, KJ/(KG)(K)    3.5624   3.0626
 GAMMAs            1.1611   1.1684
 SON VEL,M/SEC     1113.3   1073.5
 MACH NUMBER        0.000    1.000

 PERFORMANCE PARAMETERS

 Ae/At                     1.00000
 CSTAR, M/SEC               1610.4
 CF                         0.6666
 Ivac, M/SEC                1992.2
 Isp, M/SEC                 1073.5


 MOLE FRACTIONS

 *CO              0.17807  0.17376
 *CO2             0.06124  0.06797
 *H               0.01668  0.01185
 HO2              0.00001  0.00000
 *H2              0.05966  0.05851
 H2O              0.16091  0.17011
 *N               0.00001  0.00000
 *NO              0.00593  0.00342
 *N2              0.49250  0.49877
 *O               0.00293  0.00143
 *OH              0.01897  0.01253
 *O2              0.00308  0.00164

  * THERMODYNAMIC PROPERTIES FITTED TO 20000.K

 NOTE. WEIGHT FRACTION OF FUEL IN TOTAL FUELS AND OF OXIDANT IN TOTAL OXIDANTS










              THEORETICAL ROCKET PERFORMANCE ASSUMING EQUILIBRIUM

           COMPOSITION DURING EXPANSION FROM INFINITE AREA COMBUSTOR

 Pin =   348.1 PSIA
 CASE = rkt            

             REACTANT                    WT FRACTION      ENERGY      TEMP
                                          (SEE NOTE)     KJ/KG-MOL      K  
 OXIDANT     N2O                          1.0000000     81594.206    298.000
 FUEL        C(gr)                        0.0200000        -1.279    298.000
 FUEL        SASOL907                     0.9800000  -1438200.000    298.000

 O/F=    6.50000  %FUEL= 13.333333  R,EQ.RATIO= 1.447175  PHI,EQ.RATIO= 1.447175

                 CHAMBER   THROAT
 Pinf/P            1.0000   1.7543
 P, BAR            24.000   13.680
 T, K             3245.98  3025.45
 RHO, KG/CU M    2.2404 0 1.3836 0
 H, KJ/KG         1339.50   760.71
 U, KJ/KG          268.25  -228.04
 G, KJ/KG        -32049.9 -30360.2
 S, KJ/(KG)(K)    10.2864  10.2864

 M, (1/n)          25.194   25.441
 (dLV/dLP)t      -1.01376 -1.00881
 (dLV/dLT)p        1.2714   1.1868
 Cp, KJ/(KG)(K)    3.4661   2.9760
 GAMMAs            1.1630   1.1708
 SON VEL,M/SEC     1116.2   1075.9
 MACH NUMBER        0.000    1.000

 PERFORMANCE PARAMETERS

 Ae/At                     1.00000
 CSTAR, M/SEC               1612.2
 CF                         0.6674
 Ivac, M/SEC                1994.9
 Isp, M/SEC                 1075.9


 MOLE FRACTIONS

 *CO              0.17793  0.17365
 *CO2             0.06167  0.06831
 *H               0.01583  0.01116
 HO2              0.00001  0.00000
 *H2              0.05944  0.05836
 H2O              0.16214  0.17110
 *N               0.00001  0.00000
 *NO              0.00582  0.00330
 *N2              0.49317  0.49931
 *O               0.00270  0.00129
 *OH              0.01838  0.01200
 *O2              0.00287  0.00149

  * THERMODYNAMIC PROPERTIES FITTED TO 20000.K

 NOTE. WEIGHT FRACTION OF FUEL IN TOTAL FUELS AND OF OXIDANT IN TOTAL OXIDANTS










              THEORETICAL ROCKET PERFORMANCE ASSUMING EQUILIBRIUM

           COMPOSITION DURING EXPANSION FROM INFINITE AREA COMBUSTOR

 Pin =   406.1 PSIA
 CASE = rkt            

             REACTANT                    WT FRACTION      ENERGY      TEMP
                                          (SEE NOTE)     KJ/KG-MOL      K  
 OXIDANT     N2O                          1.0000000     81594.206    298.000
 FUEL        C(gr)                        0.0200000        -1.279    298.000
 FUEL        SASOL907                     0.9800000  -1438200.000    298.000

 O/F=    6.50000  %FUEL= 13.333333  R,EQ.RATIO= 1.447175  PHI,EQ.RATIO= 1.447175

                 CHAMBER   THROAT
 Pinf/P            1.0000   1.7556
 P, BAR            28.000   15.949
 T, K             3258.81  3034.09
 RHO, KG/CU M    2.6062 0 1.6097 0
 H, KJ/KG         1339.50   758.50
 U, KJ/KG          265.12  -232.28
 G, KJ/KG        -32016.2 -30297.1
 S, KJ/(KG)(K)    10.2355  10.2355

 M, (1/n)          25.220   25.462
 (dLV/dLP)t      -1.01322 -1.00836
 (dLV/dLT)p        1.2602   1.1771
 Cp, KJ/(KG)(K)    3.3870   2.9056
 GAMMAs            1.1646   1.1728
 SON VEL,M/SEC     1118.6   1078.0
 MACH NUMBER        0.000    1.000

 PERFORMANCE PARAMETERS

 Ae/At                      1.0000
 CSTAR, M/SEC               1613.6
 CF                         0.6680
 Ivac, M/SEC                1997.1
 Isp, M/SEC                 1078.0


 MOLE FRACTIONS

 *CO              0.17782  0.17357
 *CO2             0.06204  0.06859
 *H               0.01514  0.01060
 HO2              0.00001  0.00000
 *H2              0.05926  0.05823
 H2O              0.16316  0.17193
 *N               0.00001  0.00000
 *NO              0.00572  0.00320
 *N2              0.49373  0.49976
 *O               0.00252  0.00118
 *OH              0.01788  0.01154
 *O2              0.00270  0.00137

  * THERMODYNAMIC PROPERTIES FITTED TO 20000.K

 NOTE. WEIGHT FRACTION OF FUEL IN TOTAL FUELS AND OF OXIDANT IN TOTAL OXIDANTS










              THEORETICAL ROCKET PERFORMANCE ASSUMING EQUILIBRIUM

           COMPOSITION DURING EXPANSION FROM INFINITE AREA COMBUSTOR

 Pin =   464.1 PSIA
 CASE = rkt            

             REACTANT                    WT FRACTION      ENERGY      TEMP
                                          (SEE NOTE)     KJ/KG-MOL      K  
 OXIDANT     N2O                          1.0000000     81594.206    298.000
 FUEL        C(gr)                        0.0200000        -1.279    298.000
 FUEL        SASOL907                     0.9800000  -1438200.000    298.000

 O/F=    6.50000  %FUEL= 13.333333  R,EQ.RATIO= 1.447175  PHI,EQ.RATIO= 1.447175

                 CHAMBER   THROAT
 Pinf/P            1.0000   1.7567
 P, BAR            32.000   18.216
 T, K             3269.75  3041.36
 RHO, KG/CU M    2.9711 0 1.8353 0
 H, KJ/KG         1339.50   756.61
 U, KJ/KG          262.46  -235.88
 G, KJ/KG        -31984.3 -30239.5
 S, KJ/(KG)(K)    10.1915  10.1915

 M, (1/n)          25.242   25.479
 (dLV/dLP)t      -1.01276 -1.00799
 (dLV/dLT)p        1.2507   1.1689
 Cp, KJ/(KG)(K)    3.3203   2.8468
 GAMMAs            1.1661   1.1746
 SON VEL,M/SEC     1120.7   1079.7
 MACH NUMBER        0.000    1.000

 PERFORMANCE PARAMETERS

 Ae/At                     1.00000
 CSTAR, M/SEC               1614.8
 CF                         0.6686
 Ivac, M/SEC                1998.9
 Isp, M/SEC                 1079.7


 MOLE FRACTIONS

 *CO              0.17771  0.17349
 *CO2             0.06235  0.06883
 *H               0.01455  0.01013
 HO2              0.00001  0.00000
 *H2              0.05910  0.05813
 H2O              0.16404  0.17263
 *N               0.00001  0.00000
 *NO              0.00563  0.00312
 *N2              0.49421  0.50014
 *O               0.00236  0.00109
 *OH              0.01745  0.01115
 *O2              0.00255  0.00128

  * THERMODYNAMIC PROPERTIES FITTED TO 20000.K

 NOTE. WEIGHT FRACTION OF FUEL IN TOTAL FUELS AND OF OXIDANT IN TOTAL OXIDANTS










              THEORETICAL ROCKET PERFORMANCE ASSUMING EQUILIBRIUM

           COMPOSITION DURING EXPANSION FROM INFINITE AREA COMBUSTOR

 Pin =   522.1 PSIA
 CASE = rkt            

             REACTANT                    WT FRACTION      ENERGY      TEMP
                                          (SEE NOTE)     KJ/KG-MOL      K  
 OXIDANT     N2O                          1.0000000     81594.206    298.000
 FUEL        C(gr)                        0.0200000        -1.279    298.000
 FUEL        SASOL907                     0.9800000  -1438200.000    298.000

 O/F=    6.50000  %FUEL= 13.333333  R,EQ.RATIO= 1.447175  PHI,EQ.RATIO= 1.447175

                 CHAMBER   THROAT
 Pinf/P            1.0000   1.7577
 P, BAR            36.000   20.481
 T, K             3279.26  3047.60
 RHO, KG/CU M    3.3353 0 2.0606 0
 H, KJ/KG         1339.50   754.97
 U, KJ/KG          260.15  -238.99
 G, KJ/KG        -31954.0 -30186.6
 S, KJ/(KG)(K)    10.1528  10.1528

 M, (1/n)          25.261   25.493
 (dLV/dLP)t      -1.01235 -1.00766
 (dLV/dLT)p        1.2424   1.1619
 Cp, KJ/(KG)(K)    3.2628   2.7965
 GAMMAs            1.1673   1.1762
 SON VEL,M/SEC     1122.5   1081.2
 MACH NUMBER        0.000    1.000

 PERFORMANCE PARAMETERS

 Ae/At                      1.0000
 CSTAR, M/SEC               1615.8
 CF                         0.6692
 Ivac, M/SEC                2000.5
 Isp, M/SEC                 1081.2


 MOLE FRACTIONS

 *CO              0.17762  0.17342
 *CO2             0.06263  0.06904
 *H               0.01404  0.00972
 HCO              0.00001  0.00000
 HO2              0.00001  0.00000
 *H2              0.05896  0.05804
 H2O              0.16481  0.17323
 *N               0.00001  0.00000
 *NO              0.00555  0.00304
 *N2              0.49463  0.50047
 *O               0.00223  0.00101
 *OH              0.01706  0.01081
 *O2              0.00243  0.00119

  * THERMODYNAMIC PROPERTIES FITTED TO 20000.K

 NOTE. WEIGHT FRACTION OF FUEL IN TOTAL FUELS AND OF OXIDANT IN TOTAL OXIDANTS










              THEORETICAL ROCKET PERFORMANCE ASSUMING EQUILIBRIUM

           COMPOSITION DURING EXPANSION FROM INFINITE AREA COMBUSTOR

 Pin =   580.2 PSIA
 CASE = rkt            

             REACTANT                    WT FRACTION      ENERGY      TEMP
                                          (SEE NOTE)     KJ/KG-MOL      K  
 OXIDANT     N2O                          1.0000000     81594.206    298.000
 FUEL        C(gr)                        0.0200000        -1.279    298.000
 FUEL        SASOL907                     0.9800000  -1438200.000    298.000

 O/F=    6.50000  %FUEL= 13.333333  R,EQ.RATIO= 1.447175  PHI,EQ.RATIO= 1.447175

                 CHAMBER   THROAT
 Pinf/P            1.0000   1.7586
 P, BAR            40.000   22.745
 T, K             3287.65  3053.05
 RHO, KG/CU M    3.6990 0 2.2854 0
 H, KJ/KG         1339.50   753.51
 U, KJ/KG          258.12  -241.72
 G, KJ/KG        -31925.3 -30137.5
 S, KJ/(KG)(K)    10.1181  10.1181

 M, (1/n)          25.278   25.506
 (dLV/dLP)t      -1.01200 -1.00738
 (dLV/dLT)p        1.2351   1.1559
 Cp, KJ/(KG)(K)    3.2124   2.7527
 GAMMAs            1.1685   1.1776
 SON VEL,M/SEC     1124.1   1082.6
 MACH NUMBER        0.000    1.000

 PERFORMANCE PARAMETERS

 Ae/At                      1.0000
 CSTAR, M/SEC               1616.7
 CF                         0.6696
 Ivac, M/SEC                2001.9
 Isp, M/SEC                 1082.6


 MOLE FRACTIONS

 *CO              0.17753  0.17337
 *CO2             0.06288  0.06922
 *H               0.01360  0.00937
 HCO              0.00001  0.00000
 HO2              0.00001  0.00000
 *H2              0.05884  0.05796
 H2O              0.16549  0.17376
 *N               0.00001  0.00000
 *NO              0.00547  0.00297
 *N2              0.49501  0.50076
 *O               0.00212  0.00095
 *OH              0.01670  0.01051
 *O2              0.00232  0.00112

  * THERMODYNAMIC PROPERTIES FITTED TO 20000.K

 NOTE. WEIGHT FRACTION OF FUEL IN TOTAL FUELS AND OF OXIDANT IN TOTAL OXIDANTS










              THEORETICAL ROCKET PERFORMANCE ASSUMING EQUILIBRIUM

           COMPOSITION DURING EXPANSION FROM INFINITE AREA COMBUSTOR

 Pin =   638.2 PSIA
 CASE = rkt            

             REACTANT                    WT FRACTION      ENERGY      TEMP
                                          (SEE NOTE)     KJ/KG-MOL      K  
 OXIDANT     N2O                          1.0000000     81594.206    298.000
 FUEL        C(gr)                        0.0200000        -1.279    298.000
 FUEL        SASOL907                     0.9800000  -1438200.000    298.000

 O/F=    6.50000  %FUEL= 13.333333  R,EQ.RATIO= 1.447175  PHI,EQ.RATIO= 1.447175

                 CHAMBER   THROAT
 Pinf/P            1.0000   1.7594
 P, BAR            44.000   25.008
 T, K             3295.15  3057.86
 RHO, KG/CU M    4.0620 0 2.5100 0
 H, KJ/KG         1339.50   752.20
 U, KJ/KG          256.30  -244.15
 G, KJ/KG        -31897.9 -30091.7
 S, KJ/(KG)(K)    10.0867  10.0867

 M, (1/n)          25.293   25.518
 (dLV/dLP)t      -1.01168 -1.00713
 (dLV/dLT)p        1.2286   1.1505
 Cp, KJ/(KG)(K)    3.1677   2.7142
 GAMMAs            1.1695   1.1789
 SON VEL,M/SEC     1125.5   1083.8
 MACH NUMBER        0.000    1.000

 PERFORMANCE PARAMETERS

 Ae/At                      1.0000
 CSTAR, M/SEC               1617.5
 CF                         0.6701
 Ivac, M/SEC                2003.1
 Isp, M/SEC                 1083.8


 MOLE FRACTIONS

 *CO              0.17745  0.17331
 *CO2             0.06310  0.06938
 *H               0.01320  0.00906
 HCO              0.00001  0.00000
 HO2              0.00001  0.00000
 *H2              0.05873  0.05789
 H2O              0.16610  0.17423
 *N               0.00001  0.00000
 *NO              0.00540  0.00290
 *N2              0.49534  0.50102
 *O               0.00202  0.00090
 *OH              0.01639  0.01023
 *O2              0.00222  0.00106

  * THERMODYNAMIC PROPERTIES FITTED TO 20000.K

 NOTE. WEIGHT FRACTION OF FUEL IN TOTAL FUELS AND OF OXIDANT IN TOTAL OXIDANTS










              THEORETICAL ROCKET PERFORMANCE ASSUMING EQUILIBRIUM

           COMPOSITION DURING EXPANSION FROM INFINITE AREA COMBUSTOR

 Pin =   696.2 PSIA
 CASE = rkt            

             REACTANT                    WT FRACTION      ENERGY      TEMP
                                          (SEE NOTE)     KJ/KG-MOL      K  
 OXIDANT     N2O                          1.0000000     81594.206    298.000
 FUEL        C(gr)                        0.0200000        -1.279    298.000
 FUEL        SASOL907                     0.9800000  -1438200.000    298.000

 O/F=    6.50000  %FUEL= 13.333333  R,EQ.RATIO= 1.447175  PHI,EQ.RATIO= 1.447175

                 CHAMBER   THROAT
 Pinf/P            1.0000   1.7602
 P, BAR            48.000   27.270
 T, K             3301.91  3062.16
 RHO, KG/CU M    4.4246 0 2.7342 0
 H, KJ/KG         1339.50   751.01
 U, KJ/KG          254.67  -246.34
 G, KJ/KG        -31871.7 -30048.7
 S, KJ/(KG)(K)    10.0581  10.0581

 M, (1/n)          25.307   25.528
 (dLV/dLP)t      -1.01140 -1.00691
 (dLV/dLT)p        1.2228   1.1457
 Cp, KJ/(KG)(K)    3.1276   2.6799
 GAMMAs            1.1705   1.1801
 SON VEL,M/SEC     1126.9   1084.9
 MACH NUMBER        0.000    1.000

 PERFORMANCE PARAMETERS

 Ae/At                     1.00000
 CSTAR, M/SEC               1618.1
 CF                         0.6704
 Ivac, M/SEC                2004.2
 Isp, M/SEC                 1084.9


 MOLE FRACTIONS

 *CO              0.17738  0.17326
 *CO2             0.06330  0.06953
 *H               0.01285  0.00878
 HCO              0.00001  0.00000
 HO2              0.00001  0.00000
 *H2              0.05862  0.05783
 H2O              0.16666  0.17465
 *N               0.00001  0.00000
 *NO              0.00533  0.00284
 *N2              0.49564  0.50125
 *O               0.00194  0.00085
 *OH              0.01609  0.00998
 *O2              0.00214  0.00101

  * THERMODYNAMIC PROPERTIES FITTED TO 20000.K

 NOTE. WEIGHT FRACTION OF FUEL IN TOTAL FUELS AND OF OXIDANT IN TOTAL OXIDANTS










              THEORETICAL ROCKET PERFORMANCE ASSUMING EQUILIBRIUM

           COMPOSITION DURING EXPANSION FROM INFINITE AREA COMBUSTOR

 Pin =   754.2 PSIA
 CASE = rkt            

             REACTANT                    WT FRACTION      ENERGY      TEMP
                                          (SEE NOTE)     KJ/KG-MOL      K  
 OXIDANT     N2O                          1.0000000     81594.206    298.000
 FUEL        C(gr)                        0.0200000        -1.279    298.000
 FUEL        SASOL907                     0.9800000  -1438200.000    298.000

 O/F=    6.50000  %FUEL= 13.333333  R,EQ.RATIO= 1.447175  PHI,EQ.RATIO= 1.447175

                 CHAMBER   THROAT
 Pinf/P            1.0000   1.7609
 P, BAR            52.000   29.531
 T, K             3308.07  3066.04
 RHO, KG/CU M    4.7868 0 2.9583 0
 H, KJ/KG         1339.50   749.93
 U, KJ/KG          253.18  -248.32
 G, KJ/KG        -31846.6 -30008.1
 S, KJ/(KG)(K)    10.0319  10.0319

 M, (1/n)          25.319   25.537
 (dLV/dLP)t      -1.01114 -1.00671
 (dLV/dLT)p        1.2175   1.1414
 Cp, KJ/(KG)(K)    3.0914   2.6491
 GAMMAs            1.1714   1.1812
 SON VEL,M/SEC     1128.1   1085.9
 MACH NUMBER        0.000    1.000

 PERFORMANCE PARAMETERS

 Ae/At                      1.0000
 CSTAR, M/SEC               1618.8
 CF                         0.6708
 Ivac, M/SEC                2005.2
 Isp, M/SEC                 1085.9


 MOLE FRACTIONS

 *CO              0.17731  0.17322
 *CO2             0.06349  0.06966
 *H               0.01253  0.00853
 HCO              0.00001  0.00000
 HO2              0.00001  0.00000
 *H2              0.05853  0.05777
 H2O              0.16716  0.17503
 *N               0.00001  0.00000
 *NO              0.00527  0.00279
 *N2              0.49592  0.50146
 *O               0.00186  0.00081
 *OH              0.01582  0.00976
 *O2              0.00206  0.00096

  * THERMODYNAMIC PROPERTIES FITTED TO 20000.K

 NOTE. WEIGHT FRACTION OF FUEL IN TOTAL FUELS AND OF OXIDANT IN TOTAL OXIDANTS










              THEORETICAL ROCKET PERFORMANCE ASSUMING EQUILIBRIUM

           COMPOSITION DURING EXPANSION FROM INFINITE AREA COMBUSTOR

 Pin =   812.2 PSIA
 CASE = rkt            

             REACTANT                    WT FRACTION      ENERGY      TEMP
                                          (SEE NOTE)     KJ/KG-MOL      K  
 OXIDANT     N2O                          1.0000000     81594.206    298.000
 FUEL        C(gr)                        0.0200000        -1.279    298.000
 FUEL        SASOL907                     0.9800000  -1438200.000    298.000

 O/F=    6.50000  %FUEL= 13.333333  R,EQ.RATIO= 1.447175  PHI,EQ.RATIO= 1.447175

                 CHAMBER   THROAT
 Pinf/P            1.0000   1.7615
 P, BAR            56.000   31.791
 T, K             3313.70  3069.56
 RHO, KG/CU M    5.1486 0 3.1821 0
 H, KJ/KG         1339.50   748.94
 U, KJ/KG          251.82  -250.13
 G, KJ/KG        -31822.4 -29969.7
 S, KJ/(KG)(K)    10.0075  10.0075

 M, (1/n)          25.331   25.546
 (dLV/dLP)t      -1.01090 -1.00653
 (dLV/dLT)p        1.2126   1.1374
 Cp, KJ/(KG)(K)    3.0583   2.6211
 GAMMAs            1.1722   1.1822
 SON VEL,M/SEC     1129.2   1086.8
 MACH NUMBER        0.000    1.000

 PERFORMANCE PARAMETERS

 Ae/At                      1.0000
 CSTAR, M/SEC               1619.3
 CF                         0.6711
 Ivac, M/SEC                2006.1
 Isp, M/SEC                 1086.8


 MOLE FRACTIONS

 *CO              0.17724  0.17318
 *CO2             0.06366  0.06978
 *H               0.01224  0.00830
 HCO              0.00001  0.00000
 HO2              0.00001  0.00000
 *H2              0.05844  0.05772
 H2O              0.16763  0.17538
 *N               0.00001  0.00000
 *NO              0.00521  0.00274
 *N2              0.49617  0.50165
 *O               0.00179  0.00077
 *OH              0.01557  0.00955
 *O2              0.00199  0.00092

  * THERMODYNAMIC PROPERTIES FITTED TO 20000.K

 NOTE. WEIGHT FRACTION OF FUEL IN TOTAL FUELS AND OF OXIDANT IN TOTAL OXIDANTS










              THEORETICAL ROCKET PERFORMANCE ASSUMING EQUILIBRIUM

           COMPOSITION DURING EXPANSION FROM INFINITE AREA COMBUSTOR

 Pin =   870.2 PSIA
 CASE = rkt            

             REACTANT                    WT FRACTION      ENERGY      TEMP
                                          (SEE NOTE)     KJ/KG-MOL      K  
 OXIDANT     N2O                          1.0000000     81594.206    298.000
 FUEL        C(gr)                        0.0200000        -1.279    298.000
 FUEL        SASOL907                     0.9800000  -1438200.000    298.000

 O/F=    6.50000  %FUEL= 13.333333  R,EQ.RATIO= 1.447175  PHI,EQ.RATIO= 1.447175

                 CHAMBER   THROAT
 Pinf/P            1.0000   1.7621
 P, BAR            60.000   34.051
 T, K             3318.89  3072.77
 RHO, KG/CU M    5.5100 0 3.4057 0
 H, KJ/KG         1339.50   748.03
 U, KJ/KG          250.57  -251.79
 G, KJ/KG        -31799.3 -29933.3
 S, KJ/(KG)(K)     9.9849   9.9849

 M, (1/n)          25.341   25.553
 (dLV/dLP)t      -1.01068 -1.00636
 (dLV/dLT)p        1.2082   1.1339
 Cp, KJ/(KG)(K)    3.0280   2.5956
 GAMMAs            1.1730   1.1832
 SON VEL,M/SEC     1130.2   1087.6
 MACH NUMBER        0.000    1.000

 PERFORMANCE PARAMETERS

 Ae/At                      1.0000
 CSTAR, M/SEC               1619.8
 CF                         0.6715
 Ivac, M/SEC                2006.9
 Isp, M/SEC                 1087.6


 MOLE FRACTIONS

 *CO              0.17718  0.17314
 *CO2             0.06382  0.06989
 *H               0.01197  0.00810
 HCO              0.00001  0.00000
 HO2              0.00001  0.00000
 *H2              0.05837  0.05767
 H2O              0.16805  0.17570
 *N               0.00001  0.00000
 *NO              0.00515  0.00269
 *N2              0.49641  0.50182
 *O               0.00173  0.00073
 *OH              0.01534  0.00936
 *O2              0.00193  0.00088

  * THERMODYNAMIC PROPERTIES FITTED TO 20000.K

 NOTE. WEIGHT FRACTION OF FUEL IN TOTAL FUELS AND OF OXIDANT IN TOTAL OXIDANTS










              THEORETICAL ROCKET PERFORMANCE ASSUMING EQUILIBRIUM

           COMPOSITION DURING EXPANSION FROM INFINITE AREA COMBUSTOR

 Pin =   290.1 PSIA
 CASE = rkt            

             REACTANT                    WT FRACTION      ENERGY      TEMP
                                          (SEE NOTE)     KJ/KG-MOL      K  
 OXIDANT     N2O                          1.0000000     81594.206    298.000
 FUEL        C(gr)                        0.0200000        -1.279    298.000
 FUEL        SASOL907                     0.9800000  -1438200.000    298.000

 O/F=    6.75000  %FUEL= 12.903226  R,EQ.RATIO= 1.393576  PHI,EQ.RATIO= 1.393576

                 CHAMBER   THROAT
 Pinf/P            1.0000   1.7481
 P, BAR            20.000   11.441
 T, K             3249.65  3043.36
 RHO, KG/CU M    1.8797 0 1.1605 0
 H, KJ/KG         1356.10   783.82
 U, KJ/KG          292.08  -202.03
 G, KJ/KG        -32093.0 -30541.9
 S, KJ/(KG)(K)    10.2931  10.2931

 M, (1/n)          25.394   25.667
 (dLV/dLP)t      -1.01631 -1.01127
 (dLV/dLT)p        1.3220   1.2386
 Cp, KJ/(KG)(K)    3.7747   3.3143
 GAMMAs            1.1564   1.1610
 SON VEL,M/SEC     1109.3   1069.8
 MACH NUMBER        0.000    1.000

 PERFORMANCE PARAMETERS

 Ae/At                      1.0000
 CSTAR, M/SEC               1610.9
 CF                         0.6641
 Ivac, M/SEC                1991.3
 Isp, M/SEC                 1069.8


 MOLE FRACTIONS

 *CO              0.16802  0.16273
 *CO2             0.06571  0.07351
 *H               0.01644  0.01199
 HO2              0.00001  0.00000
 *H2              0.05240  0.05061
 H2O              0.16139  0.17120
 *N               0.00001  0.00000
 *NO              0.00734  0.00454
 *N2              0.49883  0.50565
 *O               0.00374  0.00200
 *OH              0.02161  0.01507
 *O2              0.00448  0.00267

  * THERMODYNAMIC PROPERTIES FITTED TO 20000.K

 NOTE. WEIGHT FRACTION OF FUEL IN TOTAL FUELS AND OF OXIDANT IN TOTAL OXIDANTS










              THEORETICAL ROCKET PERFORMANCE ASSUMING EQUILIBRIUM

           COMPOSITION DURING EXPANSION FROM INFINITE AREA COMBUSTOR

 Pin =   348.1 PSIA
 CASE = rkt            

             REACTANT                    WT FRACTION      ENERGY      TEMP
                                          (SEE NOTE)     KJ/KG-MOL      K  
 OXIDANT     N2O                          1.0000000     81594.206    298.000
 FUEL        C(gr)                        0.0200000        -1.279    298.000
 FUEL        SASOL907                     0.9800000  -1438200.000    298.000

 O/F=    6.75000  %FUEL= 12.903226  R,EQ.RATIO= 1.393576  PHI,EQ.RATIO= 1.393576

                 CHAMBER   THROAT
 Pinf/P            1.0000   1.7495
 P, BAR            24.000   13.719
 T, K             3266.09  3055.27
 RHO, KG/CU M    2.2472 0 1.3876 0
 H, KJ/KG         1356.10   781.15
 U, KJ/KG          288.11  -207.49
 G, KJ/KG        -32067.4 -30485.0
 S, KJ/(KG)(K)    10.2335  10.2335

 M, (1/n)          25.427   25.695
 (dLV/dLP)t      -1.01565 -1.01068
 (dLV/dLT)p        1.3081   1.2257
 Cp, KJ/(KG)(K)    3.6760   3.2207
 GAMMAs            1.1581   1.1631
 SON VEL,M/SEC     1112.2   1072.3
 MACH NUMBER        0.000    1.000

 PERFORMANCE PARAMETERS

 Ae/At                      1.0000
 CSTAR, M/SEC               1612.9
 CF                         0.6648
 Ivac, M/SEC                1994.3
 Isp, M/SEC                 1072.3


 MOLE FRACTIONS

 *CO              0.16778  0.16252
 *CO2             0.06625  0.07398
 *H               0.01563  0.01132
 HO2              0.00001  0.00000
 *H2              0.05212  0.05038
 H2O              0.16268  0.17230
 *N               0.00001  0.00000
 *NO              0.00724  0.00442
 *N2              0.49954  0.50626
 *O               0.00347  0.00183
 *OH              0.02102  0.01451
 *O2              0.00422  0.00246

  * THERMODYNAMIC PROPERTIES FITTED TO 20000.K

 NOTE. WEIGHT FRACTION OF FUEL IN TOTAL FUELS AND OF OXIDANT IN TOTAL OXIDANTS










              THEORETICAL ROCKET PERFORMANCE ASSUMING EQUILIBRIUM

           COMPOSITION DURING EXPANSION FROM INFINITE AREA COMBUSTOR

 Pin =   406.1 PSIA
 CASE = rkt            

             REACTANT                    WT FRACTION      ENERGY      TEMP
                                          (SEE NOTE)     KJ/KG-MOL      K  
 OXIDANT     N2O                          1.0000000     81594.206    298.000
 FUEL        C(gr)                        0.0200000        -1.279    298.000
 FUEL        SASOL907                     0.9800000  -1438200.000    298.000

 O/F=    6.75000  %FUEL= 12.903226  R,EQ.RATIO= 1.393576  PHI,EQ.RATIO= 1.393576

                 CHAMBER   THROAT
 Pinf/P            1.0000   1.7506
 P, BAR            28.000   15.994
 T, K             3279.80  3065.09
 RHO, KG/CU M    2.6137 0 1.6141 0
 H, KJ/KG         1356.10   778.90
 U, KJ/KG          284.81  -212.02
 G, KJ/KG        -32042.4 -30433.3
 S, KJ/(KG)(K)    10.1831  10.1831

 M, (1/n)          25.455   25.718
 (dLV/dLP)t      -1.01510 -1.01019
 (dLV/dLT)p        1.2965   1.2151
 Cp, KJ/(KG)(K)    3.5947   3.1442
 GAMMAs            1.1596   1.1650
 SON VEL,M/SEC     1114.6   1074.4
 MACH NUMBER        0.000    1.000

 PERFORMANCE PARAMETERS

 Ae/At                      1.0000
 CSTAR, M/SEC               1614.6
 CF                         0.6655
 Ivac, M/SEC                1996.7
 Isp, M/SEC                 1074.4


 MOLE FRACTIONS

 *CO              0.16757  0.16233
 *CO2             0.06672  0.07438
 *H               0.01495  0.01077
 HO2              0.00001  0.00000
 *H2              0.05188  0.05019
 H2O              0.16377  0.17321
 *N               0.00001  0.00000
 *NO              0.00715  0.00432
 *N2              0.50014  0.50677
 *O               0.00325  0.00168
 *OH              0.02052  0.01403
 *O2              0.00399  0.00229

  * THERMODYNAMIC PROPERTIES FITTED TO 20000.K

 NOTE. WEIGHT FRACTION OF FUEL IN TOTAL FUELS AND OF OXIDANT IN TOTAL OXIDANTS










              THEORETICAL ROCKET PERFORMANCE ASSUMING EQUILIBRIUM

           COMPOSITION DURING EXPANSION FROM INFINITE AREA COMBUSTOR

 Pin =   464.1 PSIA
 CASE = rkt            

             REACTANT                    WT FRACTION      ENERGY      TEMP
                                          (SEE NOTE)     KJ/KG-MOL      K  
 OXIDANT     N2O                          1.0000000     81594.206    298.000
 FUEL        C(gr)                        0.0200000        -1.279    298.000
 FUEL        SASOL907                     0.9800000  -1438200.000    298.000

 O/F=    6.75000  %FUEL= 12.903226  R,EQ.RATIO= 1.393576  PHI,EQ.RATIO= 1.393576

                 CHAMBER   THROAT
 Pinf/P            1.0000   1.7516
 P, BAR            32.000   18.269
 T, K             3291.53  3073.40
 RHO, KG/CU M    2.9792 0 1.8400 0
 H, KJ/KG         1356.10   776.97
 U, KJ/KG          282.00  -215.88
 G, KJ/KG        -32018.4 -30385.8
 S, KJ/(KG)(K)    10.1395  10.1395

 M, (1/n)          25.479   25.738
 (dLV/dLP)t      -1.01462 -1.00978
 (dLV/dLT)p        1.2867   1.2062
 Cp, KJ/(KG)(K)    3.5258   3.0797
 GAMMAs            1.1609   1.1666
 SON VEL,M/SEC     1116.7   1076.2
 MACH NUMBER        0.000    1.000

 PERFORMANCE PARAMETERS

 Ae/At                      1.0000
 CSTAR, M/SEC               1615.9
 CF                         0.6660
 Ivac, M/SEC                1998.8
 Isp, M/SEC                 1076.2


 MOLE FRACTIONS

 *CO              0.16738  0.16217
 *CO2             0.06713  0.07472
 *H               0.01439  0.01031
 HO2              0.00001  0.00000
 *H2              0.05167  0.05003
 H2O              0.16470  0.17399
 *N               0.00001  0.00000
 *NO              0.00707  0.00423
 *N2              0.50066  0.50720
 *O               0.00307  0.00157
 *OH              0.02008  0.01361
 *O2              0.00381  0.00215

  * THERMODYNAMIC PROPERTIES FITTED TO 20000.K

 NOTE. WEIGHT FRACTION OF FUEL IN TOTAL FUELS AND OF OXIDANT IN TOTAL OXIDANTS










              THEORETICAL ROCKET PERFORMANCE ASSUMING EQUILIBRIUM

           COMPOSITION DURING EXPANSION FROM INFINITE AREA COMBUSTOR

 Pin =   522.1 PSIA
 CASE = rkt            

             REACTANT                    WT FRACTION      ENERGY      TEMP
                                          (SEE NOTE)     KJ/KG-MOL      K  
 OXIDANT     N2O                          1.0000000     81594.206    298.000
 FUEL        C(gr)                        0.0200000        -1.279    298.000
 FUEL        SASOL907                     0.9800000  -1438200.000    298.000

 O/F=    6.75000  %FUEL= 12.903226  R,EQ.RATIO= 1.393576  PHI,EQ.RATIO= 1.393576

                 CHAMBER   THROAT
 Pinf/P            1.0000   1.7525
 P, BAR            36.000   20.542
 T, K             3301.76  3080.56
 RHO, KG/CU M    3.3440 0 2.0655 0
 H, KJ/KG         1356.10   775.28
 U, KJ/KG          279.54  -219.24
 G, KJ/KG        -31995.3 -30341.8
 S, KJ/(KG)(K)    10.1011  10.1011

 M, (1/n)          25.500   25.755
 (dLV/dLP)t      -1.01421 -1.00942
 (dLV/dLT)p        1.2781   1.1984
 Cp, KJ/(KG)(K)    3.4663   3.0243
 GAMMAs            1.1620   1.1681
 SON VEL,M/SEC     1118.5   1077.8
 MACH NUMBER        0.000    1.000

 PERFORMANCE PARAMETERS

 Ae/At                      1.0000
 CSTAR, M/SEC               1617.1
 CF                         0.6665
 Ivac, M/SEC                2000.5
 Isp, M/SEC                 1077.8


 MOLE FRACTIONS

 *CO              0.16722  0.16203
 *CO2             0.06748  0.07501
 *H               0.01390  0.00992
 HO2              0.00001  0.00000
 *H2              0.05149  0.04989
 H2O              0.16551  0.17467
 *N               0.00001  0.00000
 *NO              0.00699  0.00414
 *N2              0.50111  0.50758
 *O               0.00292  0.00147
 *OH              0.01968  0.01324
 *O2              0.00364  0.00203

  * THERMODYNAMIC PROPERTIES FITTED TO 20000.K

 NOTE. WEIGHT FRACTION OF FUEL IN TOTAL FUELS AND OF OXIDANT IN TOTAL OXIDANTS










              THEORETICAL ROCKET PERFORMANCE ASSUMING EQUILIBRIUM

           COMPOSITION DURING EXPANSION FROM INFINITE AREA COMBUSTOR

 Pin =   580.2 PSIA
 CASE = rkt            

             REACTANT                    WT FRACTION      ENERGY      TEMP
                                          (SEE NOTE)     KJ/KG-MOL      K  
 OXIDANT     N2O                          1.0000000     81594.206    298.000
 FUEL        C(gr)                        0.0200000        -1.279    298.000
 FUEL        SASOL907                     0.9800000  -1438200.000    298.000

 O/F=    6.75000  %FUEL= 12.903226  R,EQ.RATIO= 1.393576  PHI,EQ.RATIO= 1.393576

                 CHAMBER   THROAT
 Pinf/P            1.0000   1.7534
 P, BAR            40.000   22.813
 T, K             3310.81  3086.85
 RHO, KG/CU M    3.7081 0 2.2906 0
 H, KJ/KG         1356.10   773.78
 U, KJ/KG          277.38  -222.20
 G, KJ/KG        -31973.0 -30300.8
 S, KJ/(KG)(K)    10.0668  10.0668

 M, (1/n)          25.519   25.769
 (dLV/dLP)t      -1.01384 -1.00911
 (dLV/dLT)p        1.2705   1.1916
 Cp, KJ/(KG)(K)    3.4140   2.9760
 GAMMAs            1.1631   1.1694
 SON VEL,M/SEC     1120.1   1079.2
 MACH NUMBER        0.000    1.000

 PERFORMANCE PARAMETERS

 Ae/At                      1.0000
 CSTAR, M/SEC               1618.2
 CF                         0.6669
 Ivac, M/SEC                2002.1
 Isp, M/SEC                 1079.2


 MOLE FRACTIONS

 *CO              0.16707  0.16191
 *CO2             0.06780  0.07527
 *H               0.01347  0.00957
 HCO              0.00001  0.00000
 HO2              0.00001  0.00000
 *H2              0.05133  0.04976
 H2O              0.16624  0.17526
 *N               0.00001  0.00000
 *NO              0.00692  0.00406
 *N2              0.50152  0.50791
 *O               0.00278  0.00139
 *OH              0.01933  0.01292
 *O2              0.00350  0.00192

  * THERMODYNAMIC PROPERTIES FITTED TO 20000.K

 NOTE. WEIGHT FRACTION OF FUEL IN TOTAL FUELS AND OF OXIDANT IN TOTAL OXIDANTS










              THEORETICAL ROCKET PERFORMANCE ASSUMING EQUILIBRIUM

           COMPOSITION DURING EXPANSION FROM INFINITE AREA COMBUSTOR

 Pin =   638.2 PSIA
 CASE = rkt            

             REACTANT                    WT FRACTION      ENERGY      TEMP
                                          (SEE NOTE)     KJ/KG-MOL      K  
 OXIDANT     N2O                          1.0000000     81594.206    298.000
 FUEL        C(gr)                        0.0200000        -1.279    298.000
 FUEL        SASOL907                     0.9800000  -1438200.000    298.000

 O/F=    6.75000  %FUEL= 12.903226  R,EQ.RATIO= 1.393576  PHI,EQ.RATIO= 1.393576

                 CHAMBER   THROAT
 Pinf/P            1.0000   1.7541
 P, BAR            44.000   25.084
 T, K             3318.92  3092.43
 RHO, KG/CU M    4.0716 0 2.5153 0
 H, KJ/KG         1356.10   772.43
 U, KJ/KG          275.44  -224.84
 G, KJ/KG        -31951.6 -30262.3
 S, KJ/(KG)(K)    10.0357  10.0357

 M, (1/n)          25.536   25.782
 (dLV/dLP)t      -1.01351 -1.00883
 (dLV/dLT)p        1.2638   1.1856
 Cp, KJ/(KG)(K)    3.3676   2.9331
 GAMMAs            1.1640   1.1706
 SON VEL,M/SEC     1121.6   1080.5
 MACH NUMBER        0.000    1.000

 PERFORMANCE PARAMETERS

 Ae/At                      1.0000
 CSTAR, M/SEC               1619.1
 CF                         0.6673
[...]
 GAMMAs            1.1436   1.1406
 SON VEL,M/SEC     1066.9   1029.6
 MACH NUMBER        0.000    1.000

 PERFORMANCE PARAMETERS

 Ae/At                      1.0000
 CSTAR, M/SEC               1566.3
 CF                         0.6574
 Ivac, M/SEC                1932.4
 Isp, M/SEC                 1029.6


 MOLE FRACTIONS

 *CO              0.07953  0.06831
 *CO2             0.09730  0.11066
 *H               0.00822  0.00605
 HNO              0.00001  0.00000
 HO2              0.00005  0.00003
 *H2              0.01452  0.01214
 H2O              0.14038  0.14891
 *N               0.00001  0.00000
 *NO              0.02345  0.01897
 NO2              0.00002  0.00002
 *N2              0.55150  0.56055
 N2O              0.00001  0.00000
 *O               0.01066  0.00789
 *OH              0.03422  0.02838
 *O2              0.04012  0.03808

  * THERMODYNAMIC PROPERTIES FITTED TO 20000.K

 NOTE. WEIGHT FRACTION OF FUEL IN TOTAL FUELS AND OF OXIDANT IN TOTAL OXIDANTS










              THEORETICAL ROCKET PERFORMANCE ASSUMING EQUILIBRIUM

           COMPOSITION DURING EXPANSION FROM INFINITE AREA COMBUSTOR

 Pin =   406.1 PSIA
 CASE = rkt            

             REACTANT                    WT FRACTION      ENERGY      TEMP
                                          (SEE NOTE)     KJ/KG-MOL      K  
 OXIDANT     N2O                          1.0000000     81594.206    298.000
 FUEL        C(gr)                        0.0200000        -1.279    298.000
 FUEL        SASOL907                     0.9800000  -1438200.000    298.000

 O/F=   10.00000  %FUEL=  9.090909  R,EQ.RATIO= 0.940664  PHI,EQ.RATIO= 0.940664

                 CHAMBER   THROAT
 Pinf/P            1.0000   1.7356
 P, BAR            28.000   16.133
 T, K             3280.12  3098.34
 RHO, KG/CU M    2.8032 0 1.7304 0
 H, KJ/KG         1503.17   971.07
 U, KJ/KG          504.32   38.742
 G, KJ/KG        -30220.4 -28994.3
 S, KJ/(KG)(K)     9.6715   9.6715

 M, (1/n)          27.304   27.631
 (dLV/dLP)t      -1.02094 -1.01797
 (dLV/dLT)p        1.4140   1.3784
 Cp, KJ/(KG)(K)    4.1371   4.0296
 GAMMAs            1.1445   1.1415
 SON VEL,M/SEC     1069.2   1031.6
 MACH NUMBER        0.000    1.000

 PERFORMANCE PARAMETERS

 Ae/At                      1.0000
 CSTAR, M/SEC               1568.6
 CF                         0.6577
 Ivac, M/SEC                1935.4
 Isp, M/SEC                 1031.6


 MOLE FRACTIONS

 *CO              0.07860  0.06732
 *CO2             0.09846  0.11186
 *H               0.00784  0.00575
 HNO              0.00001  0.00000
 HO2              0.00005  0.00003
 *H2              0.01423  0.01186
 H2O              0.14128  0.14974
 *N               0.00001  0.00000
 *NO              0.02368  0.01913
 NO2              0.00003  0.00002
 *N2              0.55210  0.56114
 N2O              0.00001  0.00000
 *O               0.01025  0.00757
 *OH              0.03384  0.02801
 *O2              0.03960  0.03756

  * THERMODYNAMIC PROPERTIES FITTED TO 20000.K

 NOTE. WEIGHT FRACTION OF FUEL IN TOTAL FUELS AND OF OXIDANT IN TOTAL OXIDANTS










              THEORETICAL ROCKET PERFORMANCE ASSUMING EQUILIBRIUM

           COMPOSITION DURING EXPANSION FROM INFINITE AREA COMBUSTOR

 Pin =   464.1 PSIA
 CASE = rkt            

             REACTANT                    WT FRACTION      ENERGY      TEMP
                                          (SEE NOTE)     KJ/KG-MOL      K  
 OXIDANT     N2O                          1.0000000     81594.206    298.000
 FUEL        C(gr)                        0.0200000        -1.279    298.000
 FUEL        SASOL907                     0.9800000  -1438200.000    298.000

 O/F=   10.00000  %FUEL=  9.090909  R,EQ.RATIO= 0.940664  PHI,EQ.RATIO= 0.940664

                 CHAMBER   THROAT
 Pinf/P            1.0000   1.7361
 P, BAR            32.000   18.433
 T, K             3293.46  3109.55
 RHO, KG/CU M    3.1943 0 1.9719 0
 H, KJ/KG         1503.17   969.32
 U, KJ/KG          501.38   34.579
 G, KJ/KG        -30215.5 -28978.1
 S, KJ/(KG)(K)     9.6308   9.6308

 M, (1/n)          27.335   27.659
 (dLV/dLP)t      -1.02060 -1.01765
 (dLV/dLT)p        1.4062   1.3709
 Cp, KJ/(KG)(K)    4.0804   3.9739
 GAMMAs            1.1452   1.1422
 SON VEL,M/SEC     1071.1   1033.3
 MACH NUMBER        0.000    1.000

 PERFORMANCE PARAMETERS

 Ae/At                      1.0000
 CSTAR, M/SEC               1570.5
 CF                         0.6579
 Ivac, M/SEC                1937.9
 Isp, M/SEC                 1033.3


 MOLE FRACTIONS

 *CO              0.07778  0.06645
 *CO2             0.09948  0.11292
 *H               0.00752  0.00549
 HNO              0.00001  0.00000
 HO2              0.00006  0.00004
 *H2              0.01397  0.01162
 H2O              0.14206  0.15045
 *N               0.00001  0.00000
 *NO              0.02388  0.01926
 NO2              0.00003  0.00002
 *N2              0.55263  0.56166
 N2O              0.00001  0.00000
 *O               0.00991  0.00730
 *OH              0.03351  0.02768
 *O2              0.03916  0.03710

  * THERMODYNAMIC PROPERTIES FITTED TO 20000.K

 NOTE. WEIGHT FRACTION OF FUEL IN TOTAL FUELS AND OF OXIDANT IN TOTAL OXIDANTS










              THEORETICAL ROCKET PERFORMANCE ASSUMING EQUILIBRIUM

           COMPOSITION DURING EXPANSION FROM INFINITE AREA COMBUSTOR

 Pin =   522.1 PSIA
 CASE = rkt            

             REACTANT                    WT FRACTION      ENERGY      TEMP
                                          (SEE NOTE)     KJ/KG-MOL      K  
 OXIDANT     N2O                          1.0000000     81594.206    298.000
 FUEL        C(gr)                        0.0200000        -1.279    298.000
 FUEL        SASOL907                     0.9800000  -1438200.000    298.000

 O/F=   10.00000  %FUEL=  9.090909  R,EQ.RATIO= 0.940664  PHI,EQ.RATIO= 0.940664

                 CHAMBER   THROAT
 Pinf/P            1.0000   1.7365
 P, BAR            36.000   20.732
 T, K             3305.19  3119.40
 RHO, KG/CU M    3.5843 0 2.2129 0
 H, KJ/KG         1503.17   967.79
 U, KJ/KG          498.79   30.926
 G, KJ/KG        -30210.1 -28962.8
 S, KJ/(KG)(K)     9.5950   9.5950

 M, (1/n)          27.361   27.684
 (dLV/dLP)t      -1.02030 -1.01738
 (dLV/dLT)p        1.3994   1.3644
 Cp, KJ/(KG)(K)    4.0313   3.9257
 GAMMAs            1.1459   1.1429
 SON VEL,M/SEC     1072.8   1034.8
 MACH NUMBER        0.000    1.000

 PERFORMANCE PARAMETERS

 Ae/At                      1.0000
 CSTAR, M/SEC               1572.2
 CF                         0.6582
 Ivac, M/SEC                1940.2
 Isp, M/SEC                 1034.8


 MOLE FRACTIONS

 *CO              0.07704  0.06567
 *CO2             0.10039  0.11386
 *H               0.00724  0.00528
 HNO              0.00001  0.00000
 HO2              0.00006  0.00004
 *H2              0.01374  0.01141
 H2O              0.14274  0.15107
 *N               0.00001  0.00000
 *NO              0.02405  0.01938
 NO2              0.00003  0.00002
 *N2              0.55309  0.56211
 N2O              0.00001  0.00000
 *O               0.00961  0.00706
 *OH              0.03321  0.02739
 *O2              0.03876  0.03670

  * THERMODYNAMIC PROPERTIES FITTED TO 20000.K

 NOTE. WEIGHT FRACTION OF FUEL IN TOTAL FUELS AND OF OXIDANT IN TOTAL OXIDANTS










              THEORETICAL ROCKET PERFORMANCE ASSUMING EQUILIBRIUM

           COMPOSITION DURING EXPANSION FROM INFINITE AREA COMBUSTOR

 Pin =   580.2 PSIA
 CASE = rkt            

             REACTANT                    WT FRACTION      ENERGY      TEMP
                                          (SEE NOTE)     KJ/KG-MOL      K  
 OXIDANT     N2O                          1.0000000     81594.206    298.000
 FUEL        C(gr)                        0.0200000        -1.279    298.000
 FUEL        SASOL907                     0.9800000  -1438200.000    298.000

 O/F=   10.00000  %FUEL=  9.090909  R,EQ.RATIO= 0.940664  PHI,EQ.RATIO= 0.940664

                 CHAMBER   THROAT
 Pinf/P            1.0000   1.7369
 P, BAR            40.000   23.030
 T, K             3315.66  3128.18
 RHO, KG/CU M    3.9734 0 2.4533 0
 H, KJ/KG         1503.17   966.43
 U, KJ/KG          496.48   27.673
 G, KJ/KG        -30204.5 -28948.3
 S, KJ/(KG)(K)     9.5630   9.5630

 M, (1/n)          27.385   27.706
 (dLV/dLP)t      -1.02004 -1.01713
 (dLV/dLT)p        1.3933   1.3586
 Cp, KJ/(KG)(K)    3.9881   3.8832
 GAMMAs            1.1465   1.1435
 SON VEL,M/SEC     1074.3   1036.1
 MACH NUMBER        0.000    1.000

 PERFORMANCE PARAMETERS

 Ae/At                      1.0000
 CSTAR, M/SEC               1573.7
 CF                         0.6584
 Ivac, M/SEC                1942.1
 Isp, M/SEC                 1036.1


 MOLE FRACTIONS

 *CO              0.07637  0.06496
 *CO2             0.10121  0.11470
 *H               0.00700  0.00509
 HNO              0.00001  0.00000
 HO2              0.00006  0.00004
 *H2              0.01354  0.01122
 H2O              0.14335  0.15163
 *N               0.00001  0.00000
 *NO              0.02419  0.01948
 NO2              0.00003  0.00002
 *N2              0.55351  0.56251
 N2O              0.00001  0.00000
 *O               0.00934  0.00685
 *OH              0.03294  0.02713
 *O2              0.03840  0.03634

  * THERMODYNAMIC PROPERTIES FITTED TO 20000.K

 NOTE. WEIGHT FRACTION OF FUEL IN TOTAL FUELS AND OF OXIDANT IN TOTAL OXIDANTS










              THEORETICAL ROCKET PERFORMANCE ASSUMING EQUILIBRIUM

           COMPOSITION DURING EXPANSION FROM INFINITE AREA COMBUSTOR

 Pin =   638.2 PSIA
 CASE = rkt            

             REACTANT                    WT FRACTION      ENERGY      TEMP
                                          (SEE NOTE)     KJ/KG-MOL      K  
 OXIDANT     N2O                          1.0000000     81594.206    298.000
 FUEL        C(gr)                        0.0200000        -1.279    298.000
 FUEL        SASOL907                     0.9800000  -1438200.000    298.000

 O/F=   10.00000  %FUEL=  9.090909  R,EQ.RATIO= 0.940664  PHI,EQ.RATIO= 0.940664

                 CHAMBER   THROAT
 Pinf/P            1.0000   1.7372
 P, BAR            44.000   25.328
 T, K             3325.11  3136.09
 RHO, KG/CU M    4.3618 0 2.6932 0
 H, KJ/KG         1503.17   965.20
 U, KJ/KG          494.41   24.744
 G, KJ/KG        -30198.7 -28934.5
 S, KJ/(KG)(K)     9.5341   9.5341

 M, (1/n)          27.407   27.726
 (dLV/dLP)t      -1.01980 -1.01691
 (dLV/dLT)p        1.3879   1.3534
 Cp, KJ/(KG)(K)    3.9497   3.8453
 GAMMAs            1.1470   1.1441
 SON VEL,M/SEC     1075.7   1037.3
 MACH NUMBER        0.000    1.000

 PERFORMANCE PARAMETERS

 Ae/At                      1.0000
 CSTAR, M/SEC               1575.0
 CF                         0.6586
 Ivac, M/SEC                1943.9
 Isp, M/SEC                 1037.3


 MOLE FRACTIONS

 *CO              0.07576  0.06432
 *CO2             0.10196  0.11547
 *H               0.00679  0.00493
 HNO              0.00001  0.00000
 HO2              0.00006  0.00004
 *H2              0.01336  0.01105
 H2O              0.14390  0.15213
 H2O2             0.00001  0.00000
 *N               0.00001  0.00000
 *NO              0.02433  0.01957
 NO2              0.00003  0.00002
 *N2              0.55389  0.56288
 N2O              0.00001  0.00000
 *O               0.00911  0.00667
 *OH              0.03269  0.02689
 *O2              0.03808  0.03601

  * THERMODYNAMIC PROPERTIES FITTED TO 20000.K

 NOTE. WEIGHT FRACTION OF FUEL IN TOTAL FUELS AND OF OXIDANT IN TOTAL OXIDANTS










              THEORETICAL ROCKET PERFORMANCE ASSUMING EQUILIBRIUM

           COMPOSITION DURING EXPANSION FROM INFINITE AREA COMBUSTOR

 Pin =   696.2 PSIA
 CASE = rkt            

             REACTANT                    WT FRACTION      ENERGY      TEMP
                                          (SEE NOTE)     KJ/KG-MOL      K  
 OXIDANT     N2O                          1.0000000     81594.206    298.000
 FUEL        C(gr)                        0.0200000        -1.279    298.000
 FUEL        SASOL907                     0.9800000  -1438200.000    298.000

 O/F=   10.00000  %FUEL=  9.090909  R,EQ.RATIO= 0.940664  PHI,EQ.RATIO= 0.940664

                 CHAMBER   THROAT
 Pinf/P            1.0000   1.7375
 P, BAR            48.000   27.626
 T, K             3333.73  3143.29
 RHO, KG/CU M    4.7494 0 2.9327 0
 H, KJ/KG         1503.17   964.07
 U, KJ/KG          492.52   22.080
 G, KJ/KG        -30192.9 -28921.4
 S, KJ/(KG)(K)     9.5077   9.5077

 M, (1/n)          27.426   27.744
 (dLV/dLP)t      -1.01959 -1.01671
 (dLV/dLT)p        1.3830   1.3487
 Cp, KJ/(KG)(K)    3.9150   3.8112
 GAMMAs            1.1475   1.1446
 SON VEL,M/SEC     1076.9   1038.4
 MACH NUMBER        0.000    1.000

 PERFORMANCE PARAMETERS

 Ae/At                     1.00000
 CSTAR, M/SEC               1576.3
 CF                         0.6587
 Ivac, M/SEC                1945.6
 Isp, M/SEC                 1038.4


 MOLE FRACTIONS

 *CO              0.07520  0.06373
 *CO2             0.10265  0.11618
 *H               0.00660  0.00478
 HNO              0.00001  0.00001
 HO2              0.00007  0.00004
 *H2              0.01319  0.01089
 H2O              0.14440  0.15258
 H2O2             0.00001  0.00000
 *N               0.00001  0.00000
 *NO              0.02444  0.01965
 NO2              0.00003  0.00002
 *N2              0.55423  0.56321
 N2O              0.00001  0.00001
 *O               0.00890  0.00650
 *OH              0.03246  0.02667
 *O2              0.03778  0.03571

  * THERMODYNAMIC PROPERTIES FITTED TO 20000.K

 NOTE. WEIGHT FRACTION OF FUEL IN TOTAL FUELS AND OF OXIDANT IN TOTAL OXIDANTS










              THEORETICAL ROCKET PERFORMANCE ASSUMING EQUILIBRIUM

           COMPOSITION DURING EXPANSION FROM INFINITE AREA COMBUSTOR

 Pin =   754.2 PSIA
 CASE = rkt            

             REACTANT                    WT FRACTION      ENERGY      TEMP
                                          (SEE NOTE)     KJ/KG-MOL      K  
 OXIDANT     N2O                          1.0000000     81594.206    298.000
 FUEL        C(gr)                        0.0200000        -1.279    298.000
 FUEL        SASOL907                     0.9800000  -1438200.000    298.000

 O/F=   10.00000  %FUEL=  9.090909  R,EQ.RATIO= 0.940664  PHI,EQ.RATIO= 0.940664

                 CHAMBER   THROAT
 Pinf/P            1.0000   1.7378
 P, BAR            52.000   29.923
 T, K             3341.63  3149.90
 RHO, KG/CU M    5.1364 0 3.1718 0
 H, KJ/KG         1503.17   963.05
 U, KJ/KG          490.79   19.638
 G, KJ/KG        -30187.0 -28908.8
 S, KJ/(KG)(K)     9.4834   9.4834

 M, (1/n)          27.444   27.761
 (dLV/dLP)t      -1.01939 -1.01653
 (dLV/dLT)p        1.3786   1.3444
 Cp, KJ/(KG)(K)    3.8835   3.7802
 GAMMAs            1.1479   1.1450
 SON VEL,M/SEC     1078.0   1039.3
 MACH NUMBER        0.000    1.000

 PERFORMANCE PARAMETERS

 Ae/At                      1.0000
 CSTAR, M/SEC               1577.4
 CF                         0.6589
 Ivac, M/SEC                1947.0
 Isp, M/SEC                 1039.3


 MOLE FRACTIONS

 *CO              0.07467  0.06319
 *CO2             0.10329  0.11683
 *H               0.00643  0.00465
 HNO              0.00001  0.00001
 HO2              0.00007  0.00004
 *H2              0.01304  0.01075
 H2O              0.14486  0.15300
 H2O2             0.00001  0.00000
 *N               0.00001  0.00000
 *NO              0.02455  0.01972
 NO2              0.00004  0.00002
 *N2              0.55455  0.56352
 N2O              0.00001  0.00001
 *O               0.00871  0.00635
 *OH              0.03224  0.02646
 *O2              0.03750  0.03543

  * THERMODYNAMIC PROPERTIES FITTED TO 20000.K

 NOTE. WEIGHT FRACTION OF FUEL IN TOTAL FUELS AND OF OXIDANT IN TOTAL OXIDANTS










              THEORETICAL ROCKET PERFORMANCE ASSUMING EQUILIBRIUM

           COMPOSITION DURING EXPANSION FROM INFINITE AREA COMBUSTOR

 Pin =   812.2 PSIA
 CASE = rkt            

             REACTANT                    WT FRACTION      ENERGY      TEMP
                                          (SEE NOTE)     KJ/KG-MOL      K  
 OXIDANT     N2O                          1.0000000     81594.206    298.000
 FUEL        C(gr)                        0.0200000        -1.279    298.000
 FUEL        SASOL907                     0.9800000  -1438200.000    298.000

 O/F=   10.00000  %FUEL=  9.090909  R,EQ.RATIO= 0.940664  PHI,EQ.RATIO= 0.940664

                 CHAMBER   THROAT
 Pinf/P            1.0000   1.7381
 P, BAR            56.000   32.220
 T, K             3348.94  3155.99
 RHO, KG/CU M    5.5228 0 3.4106 0
 H, KJ/KG         1503.17   962.10
 U, KJ/KG          489.19   17.386
 G, KJ/KG        -30181.1 -28896.7
 S, KJ/(KG)(K)     9.4610   9.4610

 M, (1/n)          27.461   27.776
 (dLV/dLP)t      -1.01921 -1.01636
 (dLV/dLT)p        1.3745   1.3405
 Cp, KJ/(KG)(K)    3.8547   3.7518
 GAMMAs            1.1483   1.1455
 SON VEL,M/SEC     1079.1   1040.3
 MACH NUMBER        0.000    1.000

 PERFORMANCE PARAMETERS

 Ae/At                      1.0000
 CSTAR, M/SEC               1578.4
 CF                         0.6591
 Ivac, M/SEC                1948.4
 Isp, M/SEC                 1040.3


 MOLE FRACTIONS

 *CO              0.07419  0.06268
 *CO2             0.10389  0.11744
 *H               0.00628  0.00453
 HNO              0.00001  0.00001
 HO2              0.00007  0.00004
 *H2              0.01290  0.01062
 H2O              0.14529  0.15338
 H2O2             0.00001  0.00000
 *N               0.00001  0.00000
 *NO              0.02465  0.01979
 NO2              0.00004  0.00002
 *N2              0.55485  0.56381
 N2O              0.00001  0.00001
 *O               0.00853  0.00622
 *OH              0.03204  0.02627
 *O2              0.03724  0.03517

  * THERMODYNAMIC PROPERTIES FITTED TO 20000.K

 NOTE. WEIGHT FRACTION OF FUEL IN TOTAL FUELS AND OF OXIDANT IN TOTAL OXIDANTS










              THEORETICAL ROCKET PERFORMANCE ASSUMING EQUILIBRIUM

           COMPOSITION DURING EXPANSION FROM INFINITE AREA COMBUSTOR

 Pin =   870.2 PSIA
 CASE = rkt            

             REACTANT                    WT FRACTION      ENERGY      TEMP
                                          (SEE NOTE)     KJ/KG-MOL      K  
 OXIDANT     N2O                          1.0000000     81594.206    298.000
 FUEL        C(gr)                        0.0200000        -1.279    298.000
 FUEL        SASOL907                     0.9800000  -1438200.000    298.000

 O/F=   10.00000  %FUEL=  9.090909  R,EQ.RATIO= 0.940664  PHI,EQ.RATIO= 0.940664

                 CHAMBER   THROAT
 Pinf/P            1.0000   1.7383
 P, BAR            60.000   34.516
 T, K             3355.73  3161.65
 RHO, KG/CU M    5.9087 0 3.6490 0
 H, KJ/KG         1503.17   961.21
 U, KJ/KG          487.71   15.296
 G, KJ/KG        -30175.3 -28885.1
 S, KJ/(KG)(K)     9.4401   9.4401

 M, (1/n)          27.477   27.791
 (dLV/dLP)t      -1.01904 -1.01621
 (dLV/dLT)p        1.3707   1.3369
 Cp, KJ/(KG)(K)    3.8282   3.7256
 GAMMAs            1.1487   1.1459
 SON VEL,M/SEC     1080.0   1041.1
 MACH NUMBER        0.000    1.000

 PERFORMANCE PARAMETERS

 Ae/At                      1.0000
 CSTAR, M/SEC               1579.4
 CF                         0.6592
 Ivac, M/SEC                1949.7
 Isp, M/SEC                 1041.1


 MOLE FRACTIONS

 *CO              0.07373  0.06220
 *CO2             0.10445  0.11801
 *H               0.00614  0.00442
 HNO              0.00001  0.00001
 HO2              0.00007  0.00004
 *H2              0.01277  0.01050
 H2O              0.14569  0.15374
 H2O2             0.00001  0.00000
 *N               0.00001  0.00000
 *NO              0.02474  0.01985
 NO2              0.00004  0.00002
 *N2              0.55512  0.56407
 N2O              0.00001  0.00001
 *O               0.00837  0.00609
 *OH              0.03185  0.02609
 *O2              0.03700  0.03493

  * THERMODYNAMIC PROPERTIES FITTED TO 20000.K

 NOTE. WEIGHT FRACTION OF FUEL IN TOTAL FUELS AND OF OXIDANT IN TOTAL OXIDANTS





